Generated by trjconv : System of Mixture  t= 1000.00000
_cell_length_a  47.061
_cell_length_b  47.061 
_cell_length_c  71.0546
_cell_angle_alpha 90.0
_cell_angle_beta  90.0
_cell_angle_gamma 120  
_space_group_name_H-M_alt    'P 1'
space_group_IT_number      1  
 
loop_ 
    _atom_site_label 
    _atom_site_occupancy 
    _atom_site_fract_x 
    _atom_site_fract_y 
    _atom_site_fract_z 
    _atom_site_adp_type 
    _atom_site_U_iso_or_equiv 
    _atom_site_type_symbol 
   _atom_site_charge
C 1.0  		0.2653448587135242 		0.1847580724310531  0.4240401043704419 		Uiso   ? 		C 		0.65367
C 1.0  		0.26929611127823144 		0.689469035234076  0.42249199911054314 		Uiso   ? 		C 		0.65367
C 1.0  		0.7666091752388848 		0.1847580724310531  0.423477157003206 		Uiso   ? 		C 		0.65367
C 1.0  		0.7659907285255276 		0.686279320836196  0.4227734727941611 		Uiso   ? 		C 		0.65367
C 1.0  		0.2290885911528064 		0.11139464127981158  0.45767620956278693 		Uiso   ? 		C 		0.54468
C 1.0  		0.2320912749918989 		0.6146334282068898  0.45809842008821383 		Uiso   ? 		C 		0.54468
C 1.0  		0.7321426394702519 		0.1111492786338208  0.4544392622011805 		Uiso   ? 		C 		0.54468
C 1.0  		0.7281155523767743 		0.6109529885170283  0.4523282095740459 		Uiso   ? 		C 		0.54468
C 1.0  		0.4143142827332919 		0.11041319069584847  0.4530318937830907 		Uiso   ? 		C 		0.54544
C 1.0  		0.4147166199133021 		0.6097261752870743  0.45528368325203433 		Uiso   ? 		C 		0.54544
C 1.0  		0.9186367956078262 		0.11482971832368243  0.4544392622011805 		Uiso   ? 		C 		0.54544
C 1.0  		0.9129162636126007 		0.6099715379330651  0.45669105167012414 		Uiso   ? 		C 		0.54544
C 1.0  		0.41568940634552376 		0.2959073510648739  0.45612810430288825 		Uiso   ? 		C 		0.54775
C 1.0  		0.4181925735262449 		0.7964471488860536  0.45767620956278693 		Uiso   ? 		C 		0.54775
C 1.0  		0.9157773898732038 		0.29737952694081854  0.4544392622011805 		Uiso   ? 		C 		0.54775
C 1.0  		0.9124687860873153 		0.7952203356560998  0.45725399903736 		Uiso   ? 		C 		0.54775
C 1.0  		0.12207234960235377 		0.21567376582589068  0.4544392622011805 		Uiso   ? 		C 		0.54712
C 1.0  		0.11984379192380881 		0.7169496515850428  0.4562688411446972 		Uiso   ? 		C 		0.54712
C 1.0  		0.6232468557142659 		0.21591912847188147  0.45725399903736 		Uiso   ? 		C 		0.54712
C 1.0  		0.6227510887597892 		0.7176857395230151  0.45640957798650617 		Uiso   ? 		C 		0.54712
C 1.0  		0.18755634735621024 		0.20512317204828737  0.40236663073185974 		Uiso   ? 		C 		-0.13819
C 1.0  		0.18449310308808353 		0.7034547060555502  0.4039147359917585 		Uiso   ? 		C 		-0.13819
C 1.0  		0.6845773369118688 		0.20046128177446265  0.4036332623081405 		Uiso   ? 		C 		-0.13819
C 1.0  		0.6855208577185303 		0.704681519285504  0.40222589389005076 		Uiso   ? 		C 		-0.13819
C 1.0  		0.12384838183666032 		0.40239473942487  0.45725399903736 		Uiso   ? 		C 		0.54273
C 1.0  		0.12130872594948927 		0.9021984493080775  0.45246894641585483 		Uiso   ? 		C 		0.54273
C 1.0  		0.6201508880847295 		0.3996957503189715  0.457394735879169 		Uiso   ? 		C 		0.54273
C 1.0  		0.6244525846803836 		0.9017077240160958  0.4530318937830907 		Uiso   ? 		C 		0.54273
C 1.0  		0.305722374105042 		0.3989596623809991  0.4551429464102254 		Uiso   ? 		C 		0.54364
C 1.0  		0.30442478990641586 		0.898272646972225  0.4578169464045959 		Uiso   ? 		C 		0.54364
C 1.0  		0.8079440569788653 		0.40214937677887924  0.45683178851193307 		Uiso   ? 		C 		0.54364
C 1.0  		0.8087385051581023 		0.9009716360781236  0.4579576832464049 		Uiso   ? 		C 		0.54364
C 1.0  		0.04925811451511854 		0.20561389734026891  0.3981445254775905 		Uiso   ? 		C 		-0.13442
C 1.0  		0.04701843806776623 		0.6987928157817254  0.4047591570426123 		Uiso   ? 		C 		-0.13442
C 1.0  		0.5500645813503879 		0.20512317204828737  0.400818525471961 		Uiso   ? 		C 		-0.13442
C 1.0  		0.5512599381516998 		0.7051722445774856  0.40025557810472506 		Uiso   ? 		C 		-0.13442
C 1.0  		0.1892617066396884 		1.0062322112081656  0.3947668412741751 		Uiso   ? 		C 		0.12425
C 1.0  		0.1948178919077529 		0.5086367651388752  0.3958927360086469 		Uiso   ? 		C 		0.12425
C 1.0  		0.6895621803396978 		1.0077043870841105  0.3975815781103546 		Uiso   ? 		C 		0.12425
C 1.0  		0.6880885946751922 		0.506673863970949  0.395048314957793 		Uiso   ? 		C 		0.12425
C 1.0  		0.018943748078758996 		0.1781332809893022  0.3925150518052315 		Uiso   ? 		C 		0.12399
C 1.0  		1.0170027184456476 		0.6745019138286388  0.3968778939013097 		Uiso   ? 		C 		0.12399
C 1.0  		0.5187535027432452 		0.17862400628128375  0.395048314957793 		Uiso   ? 		C 		0.12399
C 1.0  		0.521035382128789 		0.6774462655805281  0.39378168338151226 		Uiso   ? 		C 		0.12399
C 1.0  		0.34713474624970636 		0.33516537442339783  0.3947668412741751 		Uiso   ? 		C 		0.12427
C 1.0  		0.3446367573308154 		0.8371773481205221  0.39603347285045587 		Uiso   ? 		C 		0.12427
C 1.0  		0.8473542071591151 		0.33860045146726864  0.3963149465340738 		Uiso   ? 		C 		0.12427
C 1.0  		0.8486875178190443 		0.8359505348905684  0.39603347285045587 		Uiso   ? 		C 		0.12427
C 1.0  		0.23382770176087314 		1.0069682991461382  0.42249199911054314 		Uiso   ? 		C 		-0.07384
C 1.0  		0.23589423385821645 		0.5096182157228384  0.4251659991049137 		Uiso   ? 		C 		-0.07384
C 1.0  		0.7369562863920309 		1.0094219256060457  0.423054946477779 		Uiso   ? 		C 		-0.07384
C 1.0  		0.730128779451007 		0.5061831386789676  0.4236178938450149 		Uiso   ? 		C 		-0.07384
C 1.0  		0.21486556282349525 		0.03704975954460693  0.40180368336462385 		Uiso   ? 		C 		-0.13482
C 1.0  		0.2197718605907056 		0.5385710079497498  0.40236663073185974 		Uiso   ? 		C 		-0.13482
C 1.0  		0.7159590561448065 		0.0392580233585239  0.40447768335899437 		Uiso   ? 		C 		-0.13482
C 1.0  		0.7158049355984288 		0.5366081067818236  0.400677788630152 		Uiso   ? 		C 		-0.13482
C 1.0  		0.322733566923202 		0.34203552851113944  0.4020851570482418 		Uiso   ? 		C 		-0.13502
C 1.0  		0.31665379327418186 		0.8381587987044853  0.40278884125728665 		Uiso   ? 		C 		-0.13502
C 1.0  		0.8209901516905171 		0.3415448032191579  0.4025073675736687 		Uiso   ? 		C 		-0.13502
C 1.0  		0.8222665212824296 		0.83963097458043  0.40166294652281487 		Uiso   ? 		C 		-0.13502
C 1.0  		0.01962153834004765 		0.22156246932966928  0.4212253675342624 		Uiso   ? 		C 		-0.07406
C 1.0  		1.0183179792239252 		0.7179311021690059  0.42474378857948675 		Uiso   ? 		C 		-0.07406
C 1.0  		0.5183600445200383 		0.2203356560997154  0.4227734727941611 		Uiso   ? 		C 		-0.07406
C 1.0  		0.5202410152835073 		0.7179311021690059  0.4236178938450149 		Uiso   ? 		C 		-0.07406
C 1.0  		0.30555375838796295 		0.2949259004809108  0.423477157003206 		Uiso   ? 		C 		-0.07390
C 1.0  		0.3061116446722862 		0.7949749730101091  0.42685484120662137 		Uiso   ? 		C 		-0.07390
C 1.0  		0.8035978529829485 		0.29443517518892925  0.4236178938450149 		Uiso   ? 		C 		-0.07390
C 1.0  		0.8065829415763452 		0.7942388850721367  0.42488452542129573 		Uiso   ? 		C 		-0.07390
C 1.0  		0.34330828395574964 		1.0045146726862304  0.395329788641411 		Uiso   ? 		C 		0.12125
C 1.0  		0.3472872276040587 		0.5071645892629307  0.3958927360086469 		Uiso   ? 		C 		0.12125
C 1.0  		0.8479002280706298 		1.008195112376092  0.3926557886470405 		Uiso   ? 		C 		0.12125
C 1.0  		0.8463937730606919 		0.506673863970949  0.39518905179960195 		Uiso   ? 		C 		0.12125
C 1.0  		0.02025912251602524 		0.33418392383943474  0.3926557886470405 		Uiso   ? 		C 		0.12145
C 1.0  		1.0187453943735325 		0.8369319854745314  0.39518905179960195 		Uiso   ? 		C 		0.12145
C 1.0  		0.5164236749054771 		0.33418392383943474  0.3939224202233212 		Uiso   ? 		C 		0.12145
C 1.0  		0.5197439334300843 		0.8342329963686329  0.3958927360086469 		Uiso   ? 		C 		0.12145
C 1.0  		0.1913959575968885 		0.17837864363529296  0.39673715705950074 		Uiso   ? 		C 		0.12162
C 1.0  		0.1935486807466629 		0.6816174305623712  0.3961742096922648 		Uiso   ? 		C 		0.12162
C 1.0  		0.6890303459469513 		0.17494356659142213  0.39603347285045587 		Uiso   ? 		C 		0.12162
C 1.0  		0.6916168470642328 		0.6798998920404358  0.39490757811598404 		Uiso   ? 		C 		0.12162
C 1.0  		0.23837095916147227 		0.03901266071253313  0.4141885254438136 		Uiso   ? 		C 		-0.02699
C 1.0  		0.24358835513730875 		0.5420060849936207  0.41615884122913926 		Uiso   ? 		C 		-0.02699
C 1.0  		0.7410745634479711 		0.04146628717244087  0.41587736754552135 		Uiso   ? 		C 		-0.02699
C 1.0  		0.7374636590763044 		0.5395524585337128  0.4155958938619034 		Uiso   ? 		C 		-0.02699
C 1.0  		0.3050359812138499 		1.0057414859161842  0.4254474727885317 		Uiso   ? 		C 		-0.08033
C 1.0  		0.30852420582663564 		0.5074099519089215  0.4255882096303406 		Uiso   ? 		C 		-0.08033
C 1.0  		0.808891846775445 		1.007949749730101  0.42375863068682396 		Uiso   ? 		C 		-0.08033
C 1.0  		0.8059308299046326 		0.5069192266169399  0.4240401043704419 		Uiso   ? 		C 		-0.08033
C 1.0  		0.019910025709058476 		0.29566198841888314  0.4226327359523522 		Uiso   ? 		C 		-0.08037
C 1.0  		1.0195068918733818 		0.7959564235940721  0.42432157805405984 		Uiso   ? 		C 		-0.08037
C 1.0  		0.5161796626116955 		0.29247227402100306  0.4222105254269252 		Uiso   ? 		C 		-0.08037
C 1.0  		0.5192304898959567 		0.7932574344881737  0.42474378857948675 		Uiso   ? 		C 		-0.08037
C 1.0  		0.2320131026332808 		0.22009029345372463  0.42488452542129573 		Uiso   ? 		C 		-0.08014
C 1.0  		0.23361816567951535 		0.7230837177348122  0.42446231489586883 		Uiso   ? 		C 		-0.08014
C 1.0  		0.7342500596068404 		0.2203356560997154  0.42389936752863294 		Uiso   ? 		C 		-0.08014
C 1.0  		0.7326830441678683 		0.7203847286289136  0.42460305173767776 		Uiso   ? 		C 		-0.08014
C 1.0  		0.18959263990601424 		0.4782117970360193  0.4026481044154777 		Uiso   ? 		C 		-0.13470
C 1.0  		0.1843387552237279 		0.9755618804593189  0.4019444202064328 		Uiso   ? 		C 		-0.13470
C 1.0  		0.6818907022252546 		0.4760035332221023  0.4030703149409046 		Uiso   ? 		C 		-0.13470
C 1.0  		0.6844924774422724 		0.9780155069192268  0.40518136756803924 		Uiso   ? 		C 		-0.13470
C 1.0  		0.48781095037373456 		0.17666110511335756  0.3998333675792982 		Uiso   ? 		C 		-0.13470
C 1.0  		0.490410404444793 		0.6722936500147219  0.400677788630152 		Uiso   ? 		C 		-0.13470
C 1.0  		0.9893599722391776 		0.17298066542349594  0.39997410442110715 		Uiso   ? 		C 		-0.13470
C 1.0  		0.9872517731735542 		0.6681224850328786  0.4040554728335674 		Uiso   ? 		C 		-0.13470
C 1.0  		0.20892044796515352 		0.47649425851408383  0.41728473596361104 		Uiso   ? 		C 		-0.02735
C 1.0  		0.20688678521324233 		0.9743350672293651  0.4155958938619034 		Uiso   ? 		C 		-0.02735
C 1.0  		0.7018800525239668 		0.473059181470213  0.4168625254381842 		Uiso   ? 		C 		-0.02735
C 1.0  		0.7078006577076563 		0.9770340563352636  0.4162995780709483 		Uiso   ? 		C 		-0.02735
C 1.0  		0.32863832971221 		0.2858474825792522  0.4150329464946675 		Uiso   ? 		C 		-0.02770
C 1.0  		0.33435524234641784 		0.7915398959662382  0.4184106306980829 		Uiso   ? 		C 		-0.02770
C 1.0  		0.8308271432406011 		0.2885464716851507  0.41531442017828546 		Uiso   ? 		C 		-0.02770
C 1.0  		0.8320465717644973 		0.787368730984395  0.41672178859637515 		Uiso   ? 		C 		-0.02770
C 1.0  		0.48561847577460515 		0.19310040239473944  0.4155958938619034 		Uiso   ? 		C 		-0.02746
C 1.0  		0.48850495633170543 		0.6914319364020022  0.4151736833364765 		Uiso   ? 		C 		-0.02746
C 1.0  		0.9871369494405755 		0.19530866620865642  0.41306263070934185 		Uiso   ? 		C 		-0.02746
C 1.0  		0.9856662208919404 		0.6904504858180391  0.4170032622799931 		Uiso   ? 		C 		-0.02746
C 1.0  		0.3234526508507701 		0.47649425851408383  0.4037739991499495 		Uiso   ? 		C 		-0.13825
C 1.0  		0.31823163551391587 		0.9743350672293651  0.4026481044154777 		Uiso   ? 		C 		-0.13825
C 1.0  		0.8191264842046987 		0.47551280793012074  0.401099999155579 		Uiso   ? 		C 		-0.13825
C 1.0  		0.8208454293869661 		0.9770340563352636  0.39955189389568024 		Uiso   ? 		C 		-0.13825
C 1.0  		0.34930610321722316 		0.036068308960643836  0.40180368336462385 		Uiso   ? 		C 		-0.13813
C 1.0  		0.3501750877101725 		0.5375895573657866  0.40166294652281487 		Uiso   ? 		C 		-0.13813
C 1.0  		0.8507588381923291 		0.037295122190597704  0.3984259991612084 		Uiso   ? 		C 		-0.13813
C 1.0  		0.8525259268197651 		0.5363627441358327  0.4032110517827136 		Uiso   ? 		C 		-0.13813
C 1.0  		0.4862319882279985 		0.3069486701344587  0.39941115705387126 		Uiso   ? 		C 		-0.13835
C 1.0  		0.4891448616536423 		0.8104328197075278  0.4040554728335674 		Uiso   ? 		C 		-0.13835
C 1.0  		0.9898096249263997 		0.30817548336441264  0.3989889465284443 		Uiso   ? 		C 		-0.13835
C 1.0  		0.9894365377308041 		0.810187457061537  0.4015222096810059 		Uiso   ? 		C 		-0.13835
C 1.0  		0.30143468571909976 		0.47453135734615765  0.417988420172656 		Uiso   ? 		C 		-0.02782
C 1.0  		0.2980691408651949 		0.9731082539994113  0.41728473596361104 		Uiso   ? 		C 		-0.02782
C 1.0  		0.7986616889701993 		0.47453135734615765  0.41601810438733033 		Uiso   ? 		C 		-0.02782
C 1.0  		0.8018351960133414 		0.9755618804593189  0.4154551570200944 		Uiso   ? 		C 		-0.02782
C 1.0  		0.4838459659262154 		0.28560211993326134  0.41390705176019565 		Uiso   ? 		C 		-0.02819
C 1.0  		0.4872078914191026 		0.7878594562763765  0.41672178859637515 		Uiso   ? 		C 		-0.02819
C 1.0  		0.9879800603510045 		0.2887918343311415  0.41446999912743154 		Uiso   ? 		C 		-0.02819
C 1.0  		0.9870833847744531 		0.7893316321523212  0.4165810517545662 		Uiso   ? 		C 		-0.02819
C 1.0  		0.19932039161198406 		0.4394444989694769  0.4240401043704419 		Uiso   ? 		C 		0.65149
C 1.0  		0.19896257851612476 		0.938512120914712  0.42206978858511623 		Uiso   ? 		C 		0.65149
C 1.0  		0.6940127868948657 		0.4365001472175876  0.4229142096359701 		Uiso   ? 		C 		0.65149
C 1.0  		0.6997778429742421 		0.9397389341446659  0.42178831490149826 		Uiso   ? 		C 		0.65149
C 1.0  		0.44887942653822144 		0.18549416036902544  0.4205216833252175 		Uiso   ? 		C 		0.65184
C 1.0  		0.4514876782321277 		0.6828442437923251  0.42235126226873415 		Uiso   ? 		C 		0.65184
C 1.0  		0.9512149915480775 		0.18721169889096087  0.41953652543255465 		Uiso   ? 		C 		0.65184
C 1.0  		0.9489030999329725 		0.6840710570222789  0.4212253675342624 		Uiso   ? 		C 		0.65184
C 1.0  		0.27265357278825614 		0.4382176857395231  0.423477157003206 		Uiso   ? 		C 		0.65479
C 1.0  		0.2699824395193562 		0.9360584944548043  0.42375863068682396 		Uiso   ? 		C 		0.65479
C 1.0  		0.7716374384860084 		0.4374815978015507  0.4226327359523522 		Uiso   ? 		C 		0.65479
C 1.0  		0.7740267235306966 		0.9394935714986752  0.4226327359523522 		Uiso   ? 		C 		0.65479
C 1.0  		0.44873413593972533 		0.25787614093630384  0.42038094648340857 		Uiso   ? 		C 		0.65505
C 1.0  		0.4507313099851867 		0.7603788399254099  0.423054946477779 		Uiso   ? 		C 		0.65505
C 1.0  		0.9502285378831113 		0.2613112179801747  0.42094389385064446 		Uiso   ? 		C 		0.65505
C 1.0  		0.9500174762687174 		0.7593973893414467  0.4227734727941611 		Uiso   ? 		C 		0.65505
C 1.0  		0.21836461423704298 		0.17494356659142213  0.40222589389005076 		Uiso   ? 		C 		-0.13858
C 1.0  		0.21759061841937255 		0.6757287270585927  0.4037739991499495 		Uiso   ? 		C 		-0.13858
C 1.0  		0.715017564516059 		0.16954558837962508  0.40447768335899437 		Uiso   ? 		C 		-0.13858
C 1.0  		0.7213654711903669 		0.6798998920404358  0.39941115705387126 		Uiso   ? 		C 		-0.13858
C 1.0  		0.05149738533543649 		0.22794189812542942  0.4126404201839149 		Uiso   ? 		C 		-0.02771
C 1.0  		0.049535937751278125 		0.722102267150849  0.4182698938562739 		Uiso   ? 		C 		-0.02771
C 1.0  		0.5509062313778479 		0.22720581018745709  0.41446999912743154 		Uiso   ? 		C 		-0.02771
C 1.0  		0.5524608298329544 		0.7262734321326921  0.4148922096528585 		Uiso   ? 		C 		-0.02771
C 1.0  		0.29976886725088675 		0.32117970360192366  0.41531442017828546 		Uiso   ? 		C 		-0.02669
C 1.0  		0.2973102241543164 		0.819020512317205  0.41812915701446496 		Uiso   ? 		C 		-0.02669
C 1.0  		0.7994888115019242 		0.321915791539896  0.41644031491275724 		Uiso   ? 		C 		-0.02669
C 1.0  		0.7997596713002056 		0.8192658749631957  0.41573663070371236 		Uiso   ? 		C 		-0.02669
C 1.0  		0.34920869642088403 		0.3074393954264403  0.400677788630152 		Uiso   ? 		C 		-0.13456
C 1.0  		0.35430573378379904 		0.8165668858572971  0.40518136756803924 		Uiso   ? 		C 		-0.13456
C 1.0  		0.8525673664700671 		0.31332809893021885  0.40292957809909563 		Uiso   ? 		C 		-0.13456
C 1.0  		0.8527724875774843 		0.8096967317695555  0.4033517886245226 		Uiso   ? 		C 		-0.13456
C 1.0  		0.2654521507136797 		0.07532633231916773  0.4212253675342624 		Uiso   ? 		C 		0.65158
C 1.0  		0.2694274750009712 		0.5788104818922367  0.4229142096359701 		Uiso   ? 		C 		0.65158
C 1.0  		0.7697658659653661 		0.07802532142506625  0.42178831490149826 		Uiso   ? 		C 		0.65158
C 1.0  		0.7664901315249097 		0.5763568554323291  0.4206624201670265 		Uiso   ? 		C 		0.65158
C 1.0  		0.054106156315366055 		0.32240651683187754  0.4141885254438136 		Uiso   ? 		C 		-0.02778
C 1.0  		0.05213823225431918 		0.8212287761311219  0.41573663070371236 		Uiso   ? 		C 		-0.02778
C 1.0  		0.5495346301515328 		0.32093434095593293  0.41587736754552135 		Uiso   ? 		C 		-0.02778
C 1.0  		0.5527650782626913 		0.8212287761311219  0.417706946489038 		Uiso   ? 		C 		-0.02778
C 1.0  		0.33864015495044464 		0.2591029541662578  0.42150684121788035 		Uiso   ? 		C 		0.65194
C 1.0  		0.34499453810164105 		0.7647953675532437  0.42460305173767776 		Uiso   ? 		C 		0.65194
C 1.0  		0.8414664389958243 		0.2618019432721563  0.4222105254269252 		Uiso   ? 		C 		0.65194
C 1.0  		0.8411326976225493 		0.7596427519874375  0.42235126226873415 		Uiso   ? 		C 		0.65194
C 1.0  		0.27626739892586083 		0.08293257434488174  0.48751242002628964 		Uiso   ? 		C 		0.57010
C 1.0  		0.27355691983464026 		0.5849445480420061  0.48863831476076147 		Uiso   ? 		C 		0.57010
C 1.0  		0.7770257223159616 		0.08489547551280793  0.4873716831844807 		Uiso   ? 		C 		0.57010
C 1.0  		0.7683960665989871 		0.5810187457061537  0.485682841082773 		Uiso   ? 		C 		0.57010
C 1.0  		0.44262507998125705 		0.17936009421925608  0.4879346305517166 		Uiso   ? 		C 		0.56676
C 1.0  		0.4454240712708679 		0.6843164196682698  0.490890104229705 		Uiso   ? 		C 		0.56676
C 1.0  		0.9485665014438267 		0.1857395230150162  0.485682841082773 		Uiso   ? 		C 		0.56676
C 1.0  		0.9422172965544606 		0.6825988811463344  0.4890605252861884 		Uiso   ? 		C 		0.56676
C 1.0  		0.3450125389743711 		0.25272352537049764  0.48976420949523325 		Uiso   ? 		C 		0.56336
C 1.0  		0.3491434123659756 		0.756943762881539  0.491030841071514 		Uiso   ? 		C 		0.56336
C 1.0  		0.8431552416056534 		0.25370497595446073  0.48976420949523325 		Uiso   ? 		C 		0.56336
C 1.0  		0.8387272458901007 		0.7522818726077142  0.48920126212799736 		Uiso   ? 		C 		0.56336
C 1.0  		0.09062245687360333 		0.25689469035234075  0.485542104240964 		Uiso   ? 		C 		0.56392
C 1.0  		0.09211363778380488 		0.7613602905093729  0.4884975779189525 		Uiso   ? 		C 		0.56392
C 1.0  		0.593448740918983 		0.2595936794582393  0.4893419989698063 		Uiso   ? 		C 		0.56392
C 1.0  		0.594293653689348 		0.7623417410933361  0.48835684107714356 		Uiso   ? 		C 		0.56392
C 1.0  		0.1933748221176863 		0.4284031798998921  0.49201599896417686 		Uiso   ? 		C 		0.57325
C 1.0  		0.1965811985062605 		0.929924428305035  0.48891978844437944 		Uiso   ? 		C 		0.57325
C 1.0  		0.693118838091308 		0.42791245460791055  0.4901864200206602 		Uiso   ? 		C 		0.57325
C 1.0  		0.6980339334813663 		0.9311512415349887  0.4890605252861884 		Uiso   ? 		C 		0.57325
C 1.0  		0.26054151930648395 		0.3255962312297576  0.48948273581161533 		Uiso   ? 		C 		0.56885
C 1.0  		0.2619493662801253 		0.8256453037589558  0.4884975779189525 		Uiso   ? 		C 		0.56885
C 1.0  		0.7640950842823008 		0.3280498576896653  0.4887790516025704 		Uiso   ? 		C 		0.56885
C 1.0  		0.7658468988100005 		0.8300618313867898  0.4906086305460871 		Uiso   ? 		C 		0.56885
C 1.0  		0.08866837835435748 		0.2546864265384238  0.4199587359579816 		Uiso   ? 		C 		0.65227
C 1.0  		0.08554819301821431 		0.7537540484836589  0.42206978858511623 		Uiso   ? 		C 		0.65227
C 1.0  		0.5867453422947752 		0.2546864265384238  0.42150684121788035 		Uiso   ? 		C 		0.65227
C 1.0  		0.5882189279592809 		0.7557169496515851  0.4206624201670265 		Uiso   ? 		C 		0.65227
C 1.0  		0.2077674724110895 		0.22769653547943863  0.41601810438733033 		Uiso   ? 		C 		-0.02852
C 1.0  		0.20355196686786656 		0.7262734321326921  0.417988420172656 		Uiso   ? 		C 		-0.02852
C 1.0  		0.706317560141335 		0.2252429090195309  0.41615884122913926 		Uiso   ? 		C 		-0.02852
C 1.0  		0.705756054495994 		0.7260280694867014  0.4171439991218021 		Uiso   ? 		C 		-0.02852
C 1.0  		0.2699327538572633 		0.3278044950436746  0.42094389385064446 		Uiso   ? 		C 		0.65122
C 1.0  		0.2690930193487284 		0.827608204926882  0.42375863068682396 		Uiso   ? 		C 		0.65122
C 1.0  		0.7733724366970472 		0.331730297379527  0.42206978858511623 		Uiso   ? 		C 		0.65122
C 1.0  		0.7715424664946177 		0.8278535675728728  0.42235126226873415 		Uiso   ? 		C 		0.65122
C 1.0  		0.3302236546758456 		0.038276572774560806  0.41587736754552135 		Uiso   ? 		C 		-0.02833
C 1.0  		0.33401056051339184 		0.540533909117676  0.41756620964722907 		Uiso   ? 		C 		-0.02833
C 1.0  		0.8340137815465762 		0.039503386004514675  0.4148922096528585 		Uiso   ? 		C 		-0.02833
C 1.0  		0.8304686158657741 		0.5385710079497498  0.4155958938619034 		Uiso   ? 		C 		-0.02833
C 1.0  		0.23913867349519857 		0.19481794091667487  0.4168625254381842 		Uiso   ? 		C 		-0.02720
C 1.0  		0.24039976898737475 		0.6958484640298361  0.41756620964722907 		Uiso   ? 		C 		-0.02720
C 1.0  		0.7385956629827786 		0.1916282265187948  0.41756620964722907 		Uiso   ? 		C 		-0.02720
C 1.0  		0.7392040138582298 		0.6956031013838454  0.41573663070371236 		Uiso   ? 		C 		-0.02720
C 1.0  		0.08960313386320481 		0.3305034841495731  0.4213661043760714 		Uiso   ? 		C 		0.65408
C 1.0  		0.08782362825190321 		0.8305525566787713  0.42235126226873415 		Uiso   ? 		C 		0.65408
C 1.0  		0.5873777972178443 		0.3307488467955639  0.42178831490149826 		Uiso   ? 		C 		0.65408
C 1.0  		0.5888249900138064 		0.826626754342919  0.42249199911054314 		Uiso   ? 		C 		0.65408
C 1.0  		0.1981008171040653 		0.2546864265384238  0.42178831490149826 		Uiso   ? 		C 		0.65560
C 1.0  		0.1959532722161211 		0.7539994111296496  0.4236178938450149 		Uiso   ? 		C 		0.65560
C 1.0  		0.6980901925954488 		0.2546864265384238  0.42150684121788035 		Uiso   ? 		C 		0.65560
C 1.0  		0.6992045366061599 		0.7566984002355482  0.42235126226873415 		Uiso   ? 		C 		0.65560
C 1.0  		0.26057865764183424 		0.42766709196191977  0.49032715686246914 		Uiso   ? 		C 		0.56822
C 1.0  		0.26463499471972646 		0.9291883403670625  0.49117157791332305 		Uiso   ? 		C 		0.56822
C 1.0  		0.7620971313078045 		0.42987535577583674  0.48920126212799736 		Uiso   ? 		C 		0.56822
C 1.0  		0.7619846777297069 		0.9294337030130533  0.4906086305460871 		Uiso   ? 		C 		0.56822
C 1.0  		0.09211782543976757 		0.3236333300618314  0.48835684107714356 		Uiso   ? 		C 		0.57141
C 1.0  		0.09454230097584732 		0.8325154578466974  0.4882161042353345 		Uiso   ? 		C 		0.57141
C 1.0  		0.5936034297603057 		0.32535086858376683  0.48948273581161533 		Uiso   ? 		C 		0.57141
C 1.0  		0.5947112972941282 		0.832024732554716  0.4887790516025704 		Uiso   ? 		C 		0.57141
C 1.0  		0.05158730940787416 		0.3403179899892041  0.3992704202120623 		Uiso   ? 		C 		-0.13850
C 1.0  		0.04899951007553455 		0.8425753263323192  0.4020851570482418 		Uiso   ? 		C 		-0.13850
C 1.0  		0.5472129993166341 		0.3417901658651487  0.40236663073185974 		Uiso   ? 		C 		-0.13850
C 1.0  		0.5499680024920055 		0.8381587987044853  0.4019444202064328 		Uiso   ? 		C 		-0.13850
C 1.0  		0.189340576593386 		0.2571400529983316  0.4872309463426717 		Uiso   ? 		C 		0.57175
C 1.0  		0.1870703519465609 		0.7562076749435667  0.48948273581161533 		Uiso   ? 		C 		0.57175
C 1.0  		0.6943070364617974 		0.25689469035234075  0.48835684107714356 		Uiso   ? 		C 		0.57175
C 1.0  		0.693419158508094 		0.7591520266954559  0.4887790516025704 		Uiso   ? 		C 		0.57175
C 1.0  		0.4476781615549662 		0.25321425066247916  0.4858235779245819 		Uiso   ? 		C 		0.56527
C 1.0  		0.4478198651174783 		0.7549808617136128  0.48962347265342426 		Uiso   ? 		C 		0.56527
C 1.0  		0.9454287531870215 		0.2546864265384238  0.4873716831844807 		Uiso   ? 		C 		0.56527
C 1.0  		0.9388582605024778 		0.7498282461478065  0.49032715686246914 		Uiso   ? 		C 		0.56527
C 1.0  		0.3407986726231735 		0.08195112376091865  0.48694947265905375 		Uiso   ? 		C 		0.57007
C 1.0  		0.34281991839121906 		0.5832270095200707  0.4904678937042781 		Uiso   ? 		C 		0.57007
C 1.0  		0.846665557772031 		0.08563156345078025  0.4872309463426717 		Uiso   ? 		C 		0.57007
C 1.0  		0.8401608037783517 		0.5817548336441261  0.4887790516025704 		Uiso   ? 		C 		0.57007
C 1.0  		0.27676238695130234 		0.18549416036902544  0.49032715686246914 		Uiso   ? 		C 		0.57134
C 1.0  		0.27577590096130244 		0.686279320836196  0.4901864200206602 		Uiso   ? 		C 		0.57134
C 1.0  		0.7743310366105008 		0.18107763274119149  0.48962347265342426 		Uiso   ? 		C 		0.57134
C 1.0  		0.7692655703779598 		0.679654529394445  0.48751242002628964 		Uiso   ? 		C 		0.57134
C 1.0  		0.3383362798227084 		0.07532633231916773  0.4210846306924534 		Uiso   ? 		C 		0.65514
C 1.0  		0.34051307469506714 		0.5773383060162922  0.4229142096359701 		Uiso   ? 		C 		0.65514
C 1.0  		0.8427638772104278 		0.07655314554912161  0.4212253675342624 		Uiso   ? 		C 		0.65514
C 1.0  		0.8393983323565228 		0.5751300422023751  0.4210846306924534 		Uiso   ? 		C 		0.65514
C 1.0  		0.18454861559816463 		0.20463244675630582  0.24783757842560508 		Uiso   ? 		C 		-0.13514
C 1.0  		0.1858337828129251 		0.7044361566395133  0.24825978895103204 		Uiso   ? 		C 		-0.13514
C 1.0  		0.6839245922951439 		0.20340563352635196  0.24924494684369483 		Uiso   ? 		C 		-0.13514
C 1.0  		0.6871814332748459 		0.7088526842673472  0.24614873632389742 		Uiso   ? 		C 		-0.13514
C 1.0  		0.2661466759576738 		0.18721169889096087  0.11230799976356211 		Uiso   ? 		C 		0.65942
C 1.0  		0.2661240327930249 		0.6865246834821868  0.11470052607431468 		Uiso   ? 		C 		0.65942
C 1.0  		0.7626945417235047 		0.1850034350770439  0.11540421028335955 		Uiso   ? 		C 		0.65942
C 1.0  		0.7658351794212145 		0.6855432328982236  0.11385610502346084 		Uiso   ? 		C 		0.65942
C 1.0  		0.26474025754196784 		0.18524879772303465  0.2678222099624796 		Uiso   ? 		C 		0.65956
C 1.0  		0.268216065170888 		0.6860339581902052  0.26627410470258084 		Uiso   ? 		C 		0.65956
C 1.0  		0.7656453324135338 		0.18623024830699775  0.2678222099624796 		Uiso   ? 		C 		0.65956
C 1.0  		0.7652875193176746 		0.6852978702522329  0.2681036836460975 		Uiso   ? 		C 		0.65956
C 1.0  		0.22906451943022207 		0.11262145450976545  0.14706999969037893 		Uiso   ? 		C 		0.54322
C 1.0  		0.22862569354376203 		0.6136519776229267  0.1450996839050533 		Uiso   ? 		C 		0.54322
C 1.0  		0.7280243134053901 		0.113112179801747  0.14918105231751358 		Uiso   ? 		C 		0.54322
C 1.0  		0.727151709551423 		0.6124251643929729  0.14932178915932254 		Uiso   ? 		C 		0.54322
C 1.0  		0.22821455874090396 		0.11262145450976545  0.3003324204203528 		Uiso   ? 		C 		0.54324
C 1.0  		0.22925436643790276 		0.6119344391009913  0.3008953677875887 		Uiso   ? 		C 		0.54324
C 1.0  		0.7279585747145257 		0.1121307292177839  0.3000509467367349 		Uiso   ? 		C 		0.54324
C 1.0  		0.726849408965645 		0.6126705270389636  0.3003324204203528 		Uiso   ? 		C 		0.54324
C 1.0  		0.3193730699882502 		0.33786436352929633  0.3545161045168082 		Uiso   ? 		C 		-0.12901
C 1.0  		0.3193920937918814 		0.8393856119344392  0.35423463083319023 		Uiso   ? 		C 		-0.12901
C 1.0  		0.8229683019323473 		0.342526253803121  0.35310873609871846 		Uiso   ? 		C 		-0.12901
C 1.0  		0.8225776194910558 		0.8411031504563746  0.3538124203077633 		Uiso   ? 		C 		-0.12901
C 1.0  		0.41551700859951624 		0.11409363038571009  0.14481821022143535 		Uiso   ? 		C 		0.54323
C 1.0  		0.4149883722996075 		0.6153695161448621  0.14749221021580589 		Uiso   ? 		C 		0.54323
C 1.0  		0.914297181747787 		0.11507508096967319  0.14833663126665975 		Uiso   ? 		C 		0.54323
C 1.0  		0.9136370680661495 		0.6143880655608991  0.1497439996847495 		Uiso   ? 		C 		0.54323
C 1.0  		0.41147737417929575 		0.10771420158994996  0.2996287362113079 		Uiso   ? 		C 		0.54324
C 1.0  		0.4150934568127926 		0.6121798017469822  0.30131757831301564 		Uiso   ? 		C 		0.54324
C 1.0  		0.9169697435746221 		0.11532044361566396  0.29779915726779127 		Uiso   ? 		C 		0.54324
C 1.0  		0.9145921132686528 		0.611198351163019  0.29991020989492584 		Uiso   ? 		C 		0.54324
C 1.0  		0.4130585114869686 		0.2978702522328001  0.14439599969600841 		Uiso   ? 		C 		0.54322
C 1.0  		0.4118924046700713 		0.7991461379919522  0.1473514733739969 		Uiso   ? 		C 		0.54322
C 1.0  		0.9163338475995917 		0.29934242810874473  0.14650705232314304 		Uiso   ? 		C 		0.54322
C 1.0  		0.9156496621953698 		0.7998822259299244  0.14805515758304177 		Uiso   ? 		C 		0.54322
C 1.0  		0.41304971386412076 		0.2961527137108647  0.2987843151604541 		Uiso   ? 		C 		0.54323
C 1.0  		0.4124641364961955 		0.7981646874079891  0.30188052568025153 		Uiso   ? 		C 		0.54323
C 1.0  		0.9149690961521657 		0.2995877907547355  0.3024434730474874 		Uiso   ? 		C 		0.54323
C 1.0  		0.914276113125096 		0.7984100500539798  0.3003324204203528 		Uiso   ? 		C 		0.54323
C 1.0  		0.122850095123919 		0.2193542055157523  0.14721073653218794 		Uiso   ? 		C 		0.54322
C 1.0  		0.12589212478533218 		0.7184218274609874  0.14833663126665975 		Uiso   ? 		C 		0.54322
C 1.0  		0.6221932024754661 		0.21763666699381687  0.1479144207412328 		Uiso   ? 		C 		0.54322
C 1.0  		0.6241487095526473 		0.7179311021690059  0.14819589442485073 		Uiso   ? 		C 		0.54322
C 1.0  		0.12186865705287213 		0.2173913043478261  0.3023027362056785 		Uiso   ? 		C 		0.54323
C 1.0  		0.12448570636962625 		0.7164589262930612  0.29991020989492584 		Uiso   ? 		C 		0.54323
C 1.0  		0.6243750452667778 		0.21690057905584456  0.299487999369499 		Uiso   ? 		C 		0.54323
C 1.0  		0.6253009708277436 		0.7176857395230151  0.29934726252768995 		Uiso   ? 		C 		0.54323
C 1.0  		0.12300721877019014 		0.40411227794680543  0.14721073653218794 		Uiso   ? 		C 		0.54322
C 1.0  		0.12176657563958049 		0.9026891746000589  0.1473514733739969 		Uiso   ? 		C 		0.54322
C 1.0  		0.6228081758118285 		0.4028854647168515  0.1484773681084687 		Uiso   ? 		C 		0.54322
C 1.0  		0.622728591579163 		0.9029345372460498  0.14763294705761484 		Uiso   ? 		C 		0.54322
C 1.0  		0.12418355176787073 		0.40264010207086076  0.30103610462939767 		Uiso   ? 		C 		0.54323
C 1.0  		0.12099762774086315 		0.9007262734321327  0.29920652568588096 		Uiso   ? 		C 		0.54323
C 1.0  		0.6218924764316458 		0.4019040141328884  0.2996287362113079 		Uiso   ? 		C 		0.54323
C 1.0  		0.623970663267708 		0.9024438119540682  0.30399157830738616 		Uiso   ? 		C 		0.54323
C 1.0  		0.30957359007551727 		0.40411227794680543  0.1458033681140982 		Uiso   ? 		C 		0.54322
C 1.0  		0.30812925439542604 		0.9044067131219944  0.14411452601239047 		Uiso   ? 		C 		0.54322
C 1.0  		0.8100208152569919 		0.40460300323878695  0.14650705232314304 		Uiso   ? 		C 		0.54322
C 1.0  		0.8083880611271554 		0.903670625184022  0.14875884179208665 		Uiso   ? 		C 		0.54322
C 1.0  		0.30920555079887463 		0.40337619000883307  0.2997694730531169 		Uiso   ? 		C 		0.54323
C 1.0  		0.30823433890861107 		0.9012169987241143  0.29906578884407203 		Uiso   ? 		C 		0.54323
C 1.0  		0.8079681287014495 		0.4009225635489253  0.3001916835785438 		Uiso   ? 		C 		0.54323
C 1.0  		0.8113059824717525 		0.9044067131219944  0.29934726252768995 		Uiso   ? 		C 		0.54323
C 1.0  		0.1644667604380437 		0.2902640102070861  0.22377157847627038 		Uiso   ? 		C 		0.60502
C 1.0  		0.16070910458491192 		0.7893316321523212  0.22334936795084342 		Uiso   ? 		C 		0.60502
C 1.0  		0.664578815688308 		0.2905093728530769  0.22419378900169729 		Uiso   ? 		C 		0.60502
C 1.0  		0.6609109702486249 		0.7893316321523212  0.22306789426722548 		Uiso   ? 		C 		0.60502
C 1.0  		0.15863971537169771 		0.2905093728530769  0.3764710518390083 		Uiso   ? 		C 		0.60536
C 1.0  		0.1529039092767358 		0.7885955442143489  0.378441367624334 		Uiso   ? 		C 		0.60536
C 1.0  		0.6594373845841193 		0.2883011090391599  0.3768932623644352 		Uiso   ? 		C 		0.60536
C 1.0  		0.6588430095933462 		0.7885955442143489  0.37731547288986217 		Uiso   ? 		C 		0.60536
C 1.0  		0.23657924720039497 		0.3707429580920601  0.22419378900169729 		Uiso   ? 		C 		0.60502
C 1.0  		0.23904074741283604 		0.8690744920993229  0.22447526268531523 		Uiso   ? 		C 		0.60502
C 1.0  		0.7385861187559294 		0.36755324369418  0.22433452584350627 		Uiso   ? 		C 		0.60502
C 1.0  		0.7382940443509345 		0.8676023162233782  0.22320863110903447 		Uiso   ? 		C 		0.60502
C 1.0  		0.23880043581402746 		0.3658357051722446  0.37717473604805324 		Uiso   ? 		C 		0.60528
C 1.0  		0.2348696356108868 		0.8607321621356365  0.3770339992062442 		Uiso   ? 		C 		0.60528
C 1.0  		0.7362575244831524 		0.3692707822161154  0.3777376834152891 		Uiso   ? 		C 		0.60528
C 1.0  		0.7385241297689598 		0.871037393267249  0.37731547288986217 		Uiso   ? 		C 		0.60528
C 1.0  		0.15759632063871493 		0.3653449798802631  0.22419378900169729 		Uiso   ? 		C 		0.60501
C 1.0  		0.1611378669584994 		0.8671115909313967  0.22334936795084342 		Uiso   ? 		C 		0.60501
C 1.0  		0.6606110231338398 		0.3692707822161154  0.22419378900169729 		Uiso   ? 		C 		0.60501
C 1.0  		0.65793988986494 		0.8671115909313967  0.22391231531807934 		Uiso   ? 		C 		0.60501
C 1.0  		0.16250118984798986 		0.36878005692413385  0.37787842025709806 		Uiso   ? 		C 		0.60530
C 1.0  		0.16123647499479604 		0.8685837668073413  0.37801915709890704 		Uiso   ? 		C 		0.60530
C 1.0  		0.6581574279562227 		0.3643635292963  0.37731547288986217 		Uiso   ? 		C 		0.60530
C 1.0  		0.6620670135526497 		0.8668662282854058  0.37801915709890704 		Uiso   ? 		C 		0.60530
C 1.0  		0.3008672552079273 		0.1504073019923447  0.22236421005818063 		Uiso   ? 		C 		0.60501
C 1.0  		0.30224223283613644 		0.6499656492295613  0.22349010479265244 		Uiso   ? 		C 		0.60501
C 1.0  		0.79959696376507 		0.1474629502404554  0.22447526268531523 		Uiso   ? 		C 		0.60501
C 1.0  		0.7986016801522222 		0.6465305721856904  0.22433452584350627 		Uiso   ? 		C 		0.60501
C 1.0  		0.05059939485993881 		0.3430169790951026  0.20026852589417155 		Uiso   ? 		C 		-0.13523
C 1.0  		0.0501758430732151 		0.8411031504563746  0.2005499995777895 		Uiso   ? 		C 		-0.13523
C 1.0  		0.5483476653460346 		0.33810972617528706  0.20195736799587924 		Uiso   ? 		C 		-0.13523
C 1.0  		0.549372198943297 		0.8403670625184022  0.20223884167949718 		Uiso   ? 		C 		-0.13523
C 1.0  		0.30060662159042917 		0.15286092845225244  0.378441367624334 		Uiso   ? 		C 		0.60541
C 1.0  		0.30088395786559907 		0.6455491216017274  0.378300630782525 		Uiso   ? 		C 		0.60541
C 1.0  		0.8015116964619953 		0.15384237903621553  0.37801915709890704 		Uiso   ? 		C 		0.60541
C 1.0  		0.7988053727017038 		0.6448130336637551  0.3777376834152891 		Uiso   ? 		C 		0.60541
C 1.0  		0.048620643998129945 		0.20561389734026891  0.248400525792841 		Uiso   ? 		C 		-0.13061
C 1.0  		0.050396530248413896 		0.7063990578074395  0.24488210474761662 		Uiso   ? 		C 		-0.13061
C 1.0  		0.5485266855529534 		0.201197369712435  0.24910421000188587 		Uiso   ? 		C 		-0.13061
C 1.0  		0.5528283821486073 		0.7032093434095594  0.24868199947645894 		Uiso   ? 		C 		-0.13061
C 1.0  		0.38127333516801876 		0.226224359603494  0.22306789426722548 		Uiso   ? 		C 		0.60501
C 1.0  		0.3792572676618033 		0.727500245362646  0.22320863110903447 		Uiso   ? 		C 		0.60501
C 1.0  		0.8767763453178979 		0.22745117283344787  0.22349010479265244 		Uiso   ? 		C 		0.60501
C 1.0  		0.8835533876677939 		0.7267641574246738  0.22447526268531523 		Uiso   ? 		C 		0.60501
C 1.0  		0.3777748843744497 		0.22475218372754935  0.3777376834152891 		Uiso   ? 		C 		0.60537
C 1.0  		0.3766985879710011 		0.7257827068407107  0.378159893940716 		Uiso   ? 		C 		0.60537
C 1.0  		0.8752889141115912 		0.22745117283344787  0.37787842025709806 		Uiso   ? 		C 		0.60537
C 1.0  		0.8795970871841337 		0.7248012562567476  0.378300630782525 		Uiso   ? 		C 		0.60537
C 1.0  		0.3774118606917266 		0.14795367553243696  0.2225049468999896 		Uiso   ? 		C 		0.60502
C 1.0  		0.37805955738949854 		0.6477573854156444  0.22405305215988833 		Uiso   ? 		C 		0.60502
C 1.0  		0.8791668962526107 		0.14893512611640006  0.22222347321637162 		Uiso   ? 		C 		0.60502
C 1.0  		0.8764147501931101 		0.6487388359996075  0.22349010479265244 		Uiso   ? 		C 		0.60502
C 1.0  		0.37975805021019937 		0.14967121405437236  0.37731547288986217 		Uiso   ? 		C 		0.60536
C 1.0  		0.3803816751853869 		0.6507017371675337  0.3791450518333788 		Uiso   ? 		C 		0.60536
C 1.0  		0.8793881840477882 		0.15065266463833546  0.3768932623644352 		Uiso   ? 		C 		0.60536
C 1.0  		0.8753259064629187 		0.6435862204338013  0.37717473604805324 		Uiso   ? 		C 		0.60536
C 1.0  		0.04942306186225817 		0.3444891549710472  0.3522643150478646 		Uiso   ? 		C 		-0.13390
C 1.0  		0.04795233331362325 		0.83963097458043  0.35367168346595435 		Uiso   ? 		C 		-0.13390
C 1.0  		0.5483916534602741 		0.34669741878496424  0.35071620978796586 		Uiso   ? 		C 		-0.13390
C 1.0  		0.5500184670831335 		0.8420846010403377  0.35296799925690947 		Uiso   ? 		C 		-0.13390
C 1.0  		0.16832378761536143 		1.0077043870841105  0.22334936795084342 		Uiso   ? 		C 		-0.24297
C 1.0  		0.17351193360678344 		0.5093728530768477  0.22447526268531523 		Uiso   ? 		C 		-0.24297
C 1.0  		0.6688608232102848 		1.007949749730101  0.22419378900169729 		Uiso   ? 		C 		-0.24297
C 1.0  		0.6699459172365814 		0.5086367651388752  0.22405305215988833 		Uiso   ? 		C 		-0.24297
C 1.0  		0.17202593095841218 		1.0074590244381196  0.3768932623644352 		Uiso   ? 		C 		-0.24540
C 1.0  		0.17335638450247037 		0.5086367651388752  0.3792857886751878 		Uiso   ? 		C 		-0.24540
C 1.0  		0.6725300972079035 		1.007213661792129  0.3798487360424237 		Uiso   ? 		C 		-0.24540
C 1.0  		0.6695778779599388 		0.5079006772009029  0.37745620973167116 		Uiso   ? 		C 		-0.24540
C 1.0  		0.017883131402081073 		0.16071253312395722  0.22447526268531523 		Uiso   ? 		C 		-0.24297
C 1.0  		1.0205358727696185 		0.65904406713122  0.2225049468999896 		Uiso   ? 		C 		-0.24297
C 1.0  		0.5185340491330375 		0.15948571989400334  0.2236308416344614 		Uiso   ? 		C 		-0.24297
C 1.0  		0.5208904648322934 		0.6610069682991462  0.22349010479265244 		Uiso   ? 		C 		-0.24297
C 1.0  		0.017628974261471454 		0.15850426931004025  0.37520442026272754 		Uiso   ? 		C 		-0.24537
C 1.0  		1.017495271666141 		0.6580626165472568  0.378441367624334 		Uiso   ? 		C 		-0.24537
C 1.0  		0.5189590294776966 		0.15948571989400334  0.378159893940716 		Uiso   ? 		C 		-0.24537
C 1.0  		0.5224917781746332 		0.6595347924232016  0.3764710518390083 		Uiso   ? 		C 		-0.24537
C 1.0  		0.36681348530078217 		0.354549023456669  0.22292715742541652 		Uiso   ? 		C 		-0.24297
C 1.0  		0.36390579013696855 		0.8536166454019041  0.22236421005818063 		Uiso   ? 		C 		-0.24297
C 1.0  		0.8673264491731214 		0.35602119933261367  0.22503821005255115 		Uiso   ? 		C 		-0.24297
C 1.0  		0.869380564286599 		0.8577878103837473  0.2236308416344614 		Uiso   ? 		C 		-0.24297
C 1.0  		0.3662810992969786 		0.3513593090587889  0.3770339992062442 		Uiso   ? 		C 		-0.24541
C 1.0  		0.36373496693291907 		0.8558249092158211  0.3787228413079519 		Uiso   ? 		C 		-0.24541
C 1.0  		0.8652344167952581 		0.3565119246245952  0.37858210446614293 		Uiso   ? 		C 		-0.24541
C 1.0  		0.8670255771452784 		0.8543527333398765  0.378441367624334 		Uiso   ? 		C 		-0.24541
C 1.0  		0.18619703381362623 		1.0064775738541567  0.24136368370239225 		Uiso   ? 		C 		0.11549
C 1.0  		0.19278280059790626 		0.5083914024928845  0.2415044205442012 		Uiso   ? 		C 		0.11549
C 1.0  		0.6874132068938182 		1.0089312003140642  0.24248957843686406 		Uiso   ? 		C 		0.11549
C 1.0  		0.6878191634348463 		0.5074099519089215  0.24248957843686406 		Uiso   ? 		C 		0.11549
C 1.0  		0.017988702876255785 		0.18132299538718227  0.24023778896792045 		Uiso   ? 		C 		0.11549
C 1.0  		1.0195789933821457 		0.679654529394445  0.23897115739163965 		Uiso   ? 		C 		0.11549
C 1.0  		0.5189483976698789 		0.17518892923741292  0.2422081047532461 		Uiso   ? 		C 		0.11549
C 1.0  		0.5219510815089714 		0.6784277161644912  0.2415044205442012 		Uiso   ? 		C 		0.11549
C 1.0  		0.3496934259405086 		0.33688291294533323  0.2403785258097294 		Uiso   ? 		C 		0.11549
C 1.0  		0.3457802209830638 		0.835214446952596  0.23981557844249352 		Uiso   ? 		C 		0.11549
C 1.0  		0.848718958606541 		0.33835508882127785  0.24291178896229096 		Uiso   ? 		C 		0.11549
C 1.0  		0.8521137534448604 		0.8411031504563746  0.2422081047532461 		Uiso   ? 		C 		0.11549
C 1.0  		0.1908894128505716 		1.0099126508980272  0.2067424206173844 		Uiso   ? 		C 		0.11542
C 1.0  		0.19060095780659447 		0.5091274904308569  0.2066016837755754 		Uiso   ? 		C 		0.11542
C 1.0  		0.6904690820970325 		1.0069682991461382  0.20800905219366517 		Uiso   ? 		C 		0.11542
C 1.0  		0.6903121044347841 		0.5081460398468938  0.20702389430100235 		Uiso   ? 		C 		0.11542
C 1.0  		0.18546431497834712 		0.20561389734026891  0.19843894695065484 		Uiso   ? 		C 		-0.13523
C 1.0  		0.187673979196138 		0.708116596329375  0.20069073641959845 		Uiso   ? 		C 		-0.13523
C 1.0  		0.6864592002633618 		0.20634998527824125  0.19998705221055357 		Uiso   ? 		C 		-0.13523
C 1.0  		0.6900993546194429 		0.7095887722053195  0.1998463153687446 		Uiso   ? 		C 		-0.13523
C 1.0  		0.19205694822540442 		1.0067229365001473  0.3608492623982121 		Uiso   ? 		C 		0.12004
C 1.0  		0.18980793818529285 		0.5083914024928845  0.36169368344906594 		Uiso   ? 		C 		0.12004
C 1.0  		0.6941471537174989 		1.007949749730101  0.3636639992343916 		Uiso   ? 		C 		0.12004
C 1.0  		0.6895519541589146 		0.5079006772009029  0.36014557818916726 		Uiso   ? 		C 		0.12004
C 1.0  		0.018396087975219078 		0.1778879183433114  0.20589799956653054 		Uiso   ? 		C 		0.11543
C 1.0  		1.0205997772755133 		0.6774462655805281  0.2044906311484408 		Uiso   ? 		C 		0.11543
C 1.0  		0.5206835095399067 		0.18205908332515458  0.20786831535185618 		Uiso   ? 		C 		0.11543
C 1.0  		0.5210289056519004 		0.6821081558543527  0.20758684166823824 		Uiso   ? 		C 		0.11543
C 1.0  		0.016720238319167136 		0.17666110511335756  0.3580345255620326 		Uiso   ? 		C 		0.12007
C 1.0  		1.0166851437601332 		0.6776916282265188  0.36141220976544797 		Uiso   ? 		C 		0.12007
C 1.0  		0.5184095351891869 		0.17666110511335756  0.3605677887145941 		Uiso   ? 		C 		0.12007
C 1.0  		0.5222533820947496 		0.6781823535185003  0.35873820977107745 		Uiso   ? 		C 		0.12007
C 1.0  		0.3244992269927026 		0.3430169790951026  0.24755610474198714 		Uiso   ? 		C 		-0.13060
C 1.0  		0.3206999041712908 		0.8398763372264207  0.2468524205329423 		Uiso   ? 		C 		-0.13060
C 1.0  		0.822666001346569 		0.3427716164491118  0.2495264205273128 		Uiso   ? 		C 		-0.13060
C 1.0  		0.8240409789747781 		0.8423299636863284  0.248400525792841 		Uiso   ? 		C 		-0.13060
C 1.0  		0.34810738669790536 		0.33541073706938856  0.2061794732501485 		Uiso   ? 		C 		0.11543
C 1.0  		0.343556711223472 		0.8337422710766514  0.2061794732501485 		Uiso   ? 		C 		0.11543
C 1.0  		0.8466991413964309 		0.33516537442339783  0.208994210086328 		Uiso   ? 		C 		0.11543
C 1.0  		0.845859406887896 		0.8349690843066052  0.20786831535185618 		Uiso   ? 		C 		0.11543
C 1.0  		0.3449024388672666 		0.33197566002551776  0.3604270518727852 		Uiso   ? 		C 		0.12008
C 1.0  		0.3452654302249561 		0.8354598095985867  0.36127147292363904 		Uiso   ? 		C 		0.12008
C 1.0  		0.845178840844692 		0.3346746491314163  0.36113073608183 		Uiso   ? 		C 		0.12008
C 1.0  		0.8485977074055955 		0.8361958975365591  0.3608492623982121 		Uiso   ? 		C 		0.12008
C 1.0  		0.22863812721151577 		1.007213661792129  0.11568568396697751 		Uiso   ? 		C 		-0.08709
C 1.0  		0.23376053451207324 		0.5079006772009029  0.11385610502346084 		Uiso   ? 		C 		-0.08709
C 1.0  		0.73123432583887 		1.0064775738541567  0.11498199975793262 		Uiso   ? 		C 		-0.08709
C 1.0  		0.7285932047995316 		0.5086367651388752  0.11596715765059545 		Uiso   ? 		C 		-0.08709
C 1.0  		0.23066442089851452 		1.0057414859161842  0.26894810469695135 		Uiso   ? 		C 		-0.08943
C 1.0  		0.2355502663041582 		0.5076553145549122  0.2697925257478052 		Uiso   ? 		C 		-0.08943
C 1.0  		0.7314796853566318 		1.0069682991461382  0.2697925257478052 		Uiso   ? 		C 		-0.08943
C 1.0  		0.7316819493481781 		0.5071645892629307  0.2696517889059962 		Uiso   ? 		C 		-0.08943
C 1.0  		0.1863471450130974 		0.20610462263225046  0.3562049466185159 		Uiso   ? 		C 		-0.13390
C 1.0  		0.18745269140096057 		0.7063990578074395  0.35507905188404415 		Uiso   ? 		C 		-0.13390
C 1.0  		0.686016624673007 		0.20291490823437042  0.3547975782004261 		Uiso   ? 		C 		-0.13390
C 1.0  		0.6835098381312681 		0.7032093434095594  0.3522643150478646 		Uiso   ? 		C 		-0.13390
C 1.0  		0.018535015755815704 		0.22278928255962316  0.11610789449240443 		Uiso   ? 		C 		-0.08709
C 1.0  		1.0201822473297222 		0.7203847286289136  0.11582642080878648 		Uiso   ? 		C 		-0.08709
C 1.0  		0.519039182005307 		0.22254391991363237  0.11498199975793262 		Uiso   ? 		C 		-0.08709
C 1.0  		0.5196780810802308 		0.7206300912749043  0.11667084185964033 		Uiso   ? 		C 		-0.08709
C 1.0  		0.01860075444668008 		0.22377073314358625  0.2681036836460975 		Uiso   ? 		C 		-0.08943
C 1.0  		1.0185480646419502 		0.7213661792128767  0.2673999994370526 		Uiso   ? 		C 		-0.08943
C 1.0  		0.5199942272078102 		0.2193542055157523  0.2697925257478052 		Uiso   ? 		C 		-0.08943
C 1.0  		0.5217219700129254 		0.7225929924428305  0.26852589417152445 		Uiso   ? 		C 		-0.08943
C 1.0  		0.3067236149087551 		0.2981156148787909  0.11554494712516852 		Uiso   ? 		C 		-0.08709
C 1.0  		0.30712595208876525 		0.7974285994700168  0.11653010501783136 		Uiso   ? 		C 		-0.08709
C 1.0  		0.8058871014334047 		0.296888801648837  0.11610789449240443 		Uiso   ? 		C 		-0.08709
C 1.0  		0.807998157614899 		0.7979193247619982  0.1145597892325057 		Uiso   ? 		C 		-0.08709
C 1.0  		0.3053083988702012 		0.29443517518892925  0.26838515732971546 		Uiso   ? 		C 		-0.08943
C 1.0  		0.30428024591192115 		0.7930120718421828  0.26937031522237825 		Uiso   ? 		C 		-0.08943
C 1.0  		0.8067611338453071 		0.29566198841888314  0.2700739994314232 		Uiso   ? 		C 		-0.08943
C 1.0  		0.8061908305771184 		0.7947296103641182  0.2692295783805693 		Uiso   ? 		C 		-0.08943
C 1.0  		0.23457257793700614 		1.0101580135440182  0.1795802101482522 		Uiso   ? 		C 		-0.08930
C 1.0  		0.2302139402733357 		0.5088821277848661  0.17746915752111755 		Uiso   ? 		C 		-0.08930
C 1.0  		0.7316681038063769 		1.008195112376092  0.1784543154137804 		Uiso   ? 		C 		-0.08930
C 1.0  		0.7334147400722464 		0.5076553145549122  0.17972094699006116 		Uiso   ? 		C 		-0.08930
C 1.0  		0.2301255584178225 		1.007213661792129  0.33073157825109145 		Uiso   ? 		C 		-0.08573
C 1.0  		0.23237171134206316 		0.5093728530768477  0.33157599930194526 		Uiso   ? 		C 		-0.08573
C 1.0  		0.7337031951162236 		1.0084404750220828  0.33298336772003506 		Uiso   ? 		C 		-0.08573
C 1.0  		0.7332022498999169 		0.5076553145549122  0.3328426308782261 		Uiso   ? 		C 		-0.08573
C 1.0  		0.01757764940735311 		0.2195995681617431  0.17789136804654448 		Uiso   ? 		C 		-0.08930
C 1.0  		1.0206905616109414 		0.7248012562567476  0.1790172627810163 		Uiso   ? 		C 		-0.08930
C 1.0  		0.5198474757263449 		0.2203356560997154  0.1777506312047355 		Uiso   ? 		C 		-0.08930
C 1.0  		0.5181513040516036 		0.7248012562567476  0.1801431575154881 		Uiso   ? 		C 		-0.08930
C 1.0  		0.018346597306070467 		0.22156246932966928  0.33157599930194526 		Uiso   ? 		C 		-0.08572
C 1.0  		1.0179916069155626 		0.7194032780449505  0.3322796835109902 		Uiso   ? 		C 		-0.08572
C 1.0  		0.5168397439682993 		0.21984493080773385  0.33298336772003506 		Uiso   ? 		C 		-0.08572
C 1.0  		0.521706695913189 		0.7255373441947198  0.3346722098217427 		Uiso   ? 		C 		-0.08572
C 1.0  		0.3100577189751632 		0.2971341642948278  0.1756395785776009 		Uiso   ? 		C 		-0.08930
C 1.0  		0.30365157301778045 		0.7947296103641182  0.17760989436292654 		Uiso   ? 		C 		-0.08930
C 1.0  		0.8086166043282564 		0.29639807635685544  0.17760989436292654 		Uiso   ? 		C 		-0.08930
C 1.0  		0.8065588698537609 		0.7954656983020906  0.17746915752111755 		Uiso   ? 		C 		-0.08930
C 1.0  		0.30628103931840023 		0.29468053783492004  0.33059084140928247 		Uiso   ? 		C 		-0.08570
C 1.0  		0.30562092563676274 		0.793993522426146  0.33129452561832734 		Uiso   ? 		C 		-0.08570
C 1.0  		0.8069407546722045 		0.2951712631269016  0.33157599930194526 		Uiso   ? 		C 		-0.08570
C 1.0  		0.8071634710253173 		0.7949749730101091  0.33157599930194526 		Uiso   ? 		C 		-0.08570
C 1.0  		0.34917699599037555 		1.0064775738541567  0.24051926265153842 		Uiso   ? 		C 		0.11818
C 1.0  		0.3474187049857874 		0.5091274904308569  0.2403785258097294 		Uiso   ? 		C 		0.11818
C 1.0  		0.8487830581053801 		1.0086858376680734  0.2386896837080217 		Uiso   ? 		C 		0.11818
C 1.0  		0.8465252504424207 		0.5086367651388752  0.24122294686058326 		Uiso   ? 		C 		0.11818
C 1.0  		0.21550303334048385 		0.03704975954460693  0.35367168346595435 		Uiso   ? 		C 		-0.12902
C 1.0  		0.21482764555910994 		0.5393070958877221  0.35367168346595435 		Uiso   ? 		C 		-0.12902
C 1.0  		0.7207148527266569 		0.037295122190597704  0.3576123150366056 		Uiso   ? 		C 		-0.12902
C 1.0  		0.7146286026007482 		0.5380802826577682  0.35339020978233643 		Uiso   ? 		C 		-0.12902
C 1.0  		0.3516775656982376 		0.30940229659436647  0.19970557852693563 		Uiso   ? 		C 		-0.13070
C 1.0  		0.34846756994864575 		0.8087152811855923  0.20012778905236253 		Uiso   ? 		C 		-0.13070
C 1.0  		0.8494434314300292 		0.30793012071842185  0.2028017890467331 		Uiso   ? 		C 		-0.13070
C 1.0  		0.8502554748549621 		0.810187457061537  0.20125368378683434 		Uiso   ? 		C 		-0.13070
C 1.0  		0.01927120796808987 		0.33688291294533323  0.24051926265153842 		Uiso   ? 		C 		0.11818
C 1.0  		1.0182394012382727 		0.8388948866424576  0.2410822100187743 		Uiso   ? 		C 		0.11818
C 1.0  		0.5165551522872059 		0.3361468250073609  0.24136368370239225 		Uiso   ? 		C 		0.11818
C 1.0  		0.5188217575730133 		0.8379134360584946  0.24248957843686406 		Uiso   ? 		C 		0.11818
C 1.0  		0.19030943501265654 		0.17960545686524684  0.24094147317696532 		Uiso   ? 		C 		0.11818
C 1.0  		0.18991875257136506 		0.6781823535185003  0.2415044205442012 		Uiso   ? 		C 		0.11818
C 1.0  		0.6901191896771426 		0.1800961821572284  0.24080073633515636 		Uiso   ? 		C 		0.11818
C 1.0  		0.6886748539970515 		0.6803906173324173  0.24136368370239225 		Uiso   ? 		C 		0.11818
C 1.0  		0.34766549306148453 		1.0077043870841105  0.20589799956653054 		Uiso   ? 		C 		0.11809
C 1.0  		0.3486367049517481 		0.5098635783688291  0.2067424206173844 		Uiso   ? 		C 		0.11809
C 1.0  		0.849755698553579 		1.0089312003140642  0.2044906311484408 		Uiso   ? 		C 		0.11809
C 1.0  		0.8496556619593472 		0.5093728530768477  0.2066016837755754 		Uiso   ? 		C 		0.11809
C 1.0  		0.3526906718747593 		0.03901266071253313  0.19900189431789075 		Uiso   ? 		C 		-0.13523
C 1.0  		0.3538290876080546 		0.5397978211797037  0.19914263115969974 		Uiso   ? 		C 		-0.13523
C 1.0  		0.853137897056234 		0.039503386004514675  0.19843894695065484 		Uiso   ? 		C 		-0.13523
C 1.0  		0.855608194891523 		0.5395524585337128  0.1992833680015087 		Uiso   ? 		C 		-0.13523
C 1.0  		0.3449512642663693 		1.0052507606242027  0.36141220976544797 		Uiso   ? 		C 		0.12080
C 1.0  		0.347466848430956 		0.506673863970949  0.3608492623982121 		Uiso   ? 		C 		0.12080
C 1.0  		0.8510875806555727 		1.008195112376092  0.3588789466128864 		Uiso   ? 		C 		0.12080
C 1.0  		0.84779139385355 		0.5069192266169399  0.35944189398012233 		Uiso   ? 		C 		0.12080
C 1.0  		0.23621318809274475 		0.03852193542055158  0.26120757839745773 		Uiso   ? 		C 		-0.03262
C 1.0  		0.2402366558252048 		0.5395524585337128  0.2621927362901206 		Uiso   ? 		C 		-0.03262
C 1.0  		0.7370284525508621 		0.03974874865050545  0.2630371573409744 		Uiso   ? 		C 		-0.03262
C 1.0  		0.7361887180423272 		0.5395524585337128  0.26345936786640134 		Uiso   ? 		C 		-0.03262
C 1.0  		0.02156925404139398 		0.34105407792717635  0.2060387364083395 		Uiso   ? 		C 		0.11809
C 1.0  		1.0197837735125959 		0.8381587987044853  0.20646094693376643 		Uiso   ? 		C 		0.11809
C 1.0  		0.5174861257671248 		0.33418392383943474  0.2067424206173844 		Uiso   ? 		C 		0.11809
C 1.0  		0.5197133852306115 		0.8401216998724115  0.20702389430100235 		Uiso   ? 		C 		0.11809
C 1.0  		0.019076313041456128 		0.3403179899892041  0.35817526240384157 		Uiso   ? 		C 		0.12086
C 1.0  		1.0170936164400648 		0.8344783590146236  0.36098999924002106 		Uiso   ? 		C 		0.12086
C 1.0  		0.5174467799448041 		0.33835508882127785  0.3591604202965044 		Uiso   ? 		C 		0.12086
C 1.0  		0.5186245415004201 		0.8349690843066052  0.36141220976544797 		Uiso   ? 		C 		0.12086
C 1.0  		0.19025249394464006 		0.18034154480321918  0.2061794732501485 		Uiso   ? 		C 		0.11810
C 1.0  		0.19151358943681626 		0.6813720679163805  0.20688315745919336 		Uiso   ? 		C 		0.11810
C 1.0  		0.6896942093324836 		0.1800961821572284  0.2061794732501485 		Uiso   ? 		C 		0.11810
C 1.0  		0.6922390434814849 		0.6828442437923251  0.2061794732501485 		Uiso   ? 		C 		0.11810
C 1.0  		0.1915603043240494 		0.18083227009520073  0.3625381044999198 		Uiso   ? 		C 		0.12087
C 1.0  		0.19263298136648038 		0.6806359799784082  0.36169368344906594 		Uiso   ? 		C 		0.12087
C 1.0  		0.6912626533293911 		0.1781332809893022  0.36141220976544797 		Uiso   ? 		C 		0.12087
C 1.0  		0.690398847098272 		0.6791638041024635  0.3600048413473582 		Uiso   ? 		C 		0.12087
C 1.0  		0.3668794189845909 		1.0074590244381196  0.22278642058360754 		Uiso   ? 		C 		-0.24315
C 1.0  		0.3685209707372753 		0.51010894101482  0.22377157847627038 		Uiso   ? 		C 		-0.24315
C 1.0  		0.8685687158546107 		1.0074590244381196  0.22166052584913573 		Uiso   ? 		C 		-0.24315
C 1.0  		0.8674150260215789 		0.5096182157228384  0.22475673636893317 		Uiso   ? 		C 		-0.24315
C 1.0  		0.34884825352713195 		0.03557758366866228  0.3545161045168082 		Uiso   ? 		C 		-0.13393
C 1.0  		0.35314995012278594 		0.5375895573657866  0.35423463083319023 		Uiso   ? 		C 		-0.13393
C 1.0  		0.8547151386759895 		0.0392580233585239  0.3526865255732915 		Uiso   ? 		C 		-0.13393
C 1.0  		0.8528610967509755 		0.5366081067818236  0.3518421045224377 		Uiso   ? 		C 		-0.13393
C 1.0  		0.3627347000511853 		1.0042693100402396  0.3792857886751878 		Uiso   ? 		C 		-0.24404
C 1.0  		0.36503779404344266 		0.505692413386986  0.3787228413079519 		Uiso   ? 		C 		-0.24404
C 1.0  		0.8691163759581506 		1.0077043870841105  0.3766117886808173 		Uiso   ? 		C 		-0.24404
C 1.0  		0.8663109081916512 		0.5074099519089215  0.3777376834152891 		Uiso   ? 		C 		-0.24404
C 1.0  		0.02068458982167401 		0.35798410050053986  0.22419378900169729 		Uiso   ? 		C 		-0.24315
C 1.0  		1.0184588548484803 		0.858033173029738  0.22320863110903447 		Uiso   ? 		C 		-0.24315
C 1.0  		0.5152783770682591 		0.3535675728727059  0.22334936795084342 		Uiso   ? 		C 		-0.24315
C 1.0  		0.5185592897705454 		0.8577878103837473  0.22546042057797808 		Uiso   ? 		C 		-0.24315
C 1.0  		0.02022674013158271 		0.3574933752085583  0.3767525255226263 		Uiso   ? 		C 		-0.24407
C 1.0  		1.0181389590170062 		0.854843458631858  0.37858210446614293 		Uiso   ? 		C 		-0.24407
C 1.0  		0.5166847954839651 		0.3555304740406321  0.37745620973167116 		Uiso   ? 		C 		-0.24407
C 1.0  		0.5188680668332122 		0.8528805574639318  0.3788635781497609 		Uiso   ? 		C 		-0.24407
C 1.0  		0.1711214149971042 		0.16120325841593877  0.22433452584350627 		Uiso   ? 		C 		-0.24315
C 1.0  		0.17191586317634122 		0.660025517715183  0.22349010479265244 		Uiso   ? 		C 		-0.24315
C 1.0  		0.6706288690758122 		0.1619393463539111  0.22320863110903447 		Uiso   ? 		C 		-0.24315
C 1.0  		0.6724945657395448 		0.6624791441750909  0.22391231531807934 		Uiso   ? 		C 		-0.24315
C 1.0  		0.172330617340217 		0.16022180783197568  0.3787228413079519 		Uiso   ? 		C 		-0.24411
C 1.0  		0.17343616372808018 		0.6605162430071647  0.378441367624334 		Uiso   ? 		C 		-0.24411
C 1.0  		0.6718204761732292 		0.15752281872607715  0.378159893940716 		Uiso   ? 		C 		-0.24411
C 1.0  		0.6724528987712646 		0.6602708803611739  0.3787228413079519 		Uiso   ? 		C 		-0.24411
C 1.0  		0.3080043671495748 		1.010403376190009  0.11470052607431468 		Uiso   ? 		C 		-0.08678
C 1.0  		0.3058516439998004 		0.5071645892629307  0.11638936817602238 		Uiso   ? 		C 		-0.08678
C 1.0  		0.8077483831231964 		1.0099126508980272  0.11554494712516852 		Uiso   ? 		C 		-0.08678
C 1.0  		0.8060623072863613 		0.5088821277848661  0.11610789449240443 		Uiso   ? 		C 		-0.08678
C 1.0  		0.30327911876719715 		1.0064775738541567  0.2676814731206706 		Uiso   ? 		C 		-0.08730
C 1.0  		0.3061868139310108 		0.5074099519089215  0.2702147362732321 		Uiso   ? 		C 		-0.08730
C 1.0  		0.8079432780498303 		1.0064775738541567  0.26937031522237825 		Uiso   ? 		C 		-0.08730
C 1.0  		0.8058169477685997 		0.5083914024928845  0.2703554731150411 		Uiso   ? 		C 		-0.08730
C 1.0  		0.019003123951723905 		0.29639807635685544  0.1151227365997416 		Uiso   ? 		C 		-0.08678
C 1.0  		1.0180194606670754 		0.7959564235940721  0.11554494712516852 		Uiso   ? 		C 		-0.08678
C 1.0  		0.5201776300636359 		0.29664343900284623  0.11610789449240443 		Uiso   ? 		C 		-0.08678
C 1.0  		0.5182995164160377 		0.7952203356560998  0.11441905239069673 		Uiso   ? 		C 		-0.08678
C 1.0  		0.0179976141580927 		0.29566198841888314  0.2695110520641873 		Uiso   ? 		C 		-0.08730
C 1.0  		1.0198003948363124 		0.793993522426146  0.2676814731206706 		Uiso   ? 		C 		-0.08730
C 1.0  		0.5191545250243089 		0.29247227402100306  0.26838515732971546 		Uiso   ? 		C 		-0.08730
C 1.0  		0.5181198955891404 		0.7957110609480813  0.2700739994314232 		Uiso   ? 		C 		-0.08730
C 1.0  		0.23059141011783846 		0.22107174403768773  0.1151227365997416 		Uiso   ? 		C 		-0.08678
C 1.0  		0.2310835577112973 		0.7201393659829228  0.11638936817602238 		Uiso   ? 		C 		-0.08678
C 1.0  		0.7294197267112779 		0.2195995681617431  0.11723378922687623 		Uiso   ? 		C 		-0.08678
C 1.0  		0.7343676914467683 		0.7233290803808029  0.11357463133984289 		Uiso   ? 		C 		-0.08678
C 1.0  		0.23174367139293478 		0.22082638139169694  0.2695110520641873 		Uiso   ? 		C 		-0.08730
C 1.0  		0.23348668829778657 		0.721120816566886  0.26908884153876034 		Uiso   ? 		C 		-0.08730
C 1.0  		0.7335973149901155 		0.2232800078516047  0.26908884153876034 		Uiso   ? 		C 		-0.08730
C 1.0  		0.7313840314113069 		0.7216115418588674  0.26880736785514237 		Uiso   ? 		C 		-0.08730
C 1.0  		0.30489802735523264 		1.0084404750220828  0.17676547331207268 		Uiso   ? 		C 		-0.08723
C 1.0  		0.30591738269066476 		0.5081460398468938  0.17789136804654448 		Uiso   ? 		C 		-0.08723
C 1.0  		0.8047077820197187 		1.0089312003140642  0.17789136804654448 		Uiso   ? 		C 		-0.08723
C 1.0  		0.8074927974246515 		0.5096182157228384  0.17873578909739835 		Uiso   ? 		C 		-0.08723
C 1.0  		0.21535688247899737 		0.17445284129944058  0.19942410484331768 		Uiso   ? 		C 		-0.13523
C 1.0  		0.21726424611101003 		0.6772009029345373  0.20026852589417155 		Uiso   ? 		C 		-0.13523
C 1.0  		0.7135805979008802 		0.17347139071547749  0.19914263115969974 		Uiso   ? 		C 		-0.13523
C 1.0  		0.7191090920853429 		0.6779369908725096  0.19942410484331768 		Uiso   ? 		C 		-0.13523
C 1.0  		0.30685858235136687 		1.0059868485621748  0.3304501045674734 		Uiso   ? 		C 		-0.08611
C 1.0  		0.30485493182901713 		0.5081460398468938  0.3328426308782261 		Uiso   ? 		C 		-0.08611
C 1.0  		0.8057702328813663 		1.0089312003140642  0.333124104561844 		Uiso   ? 		C 		-0.08611
C 1.0  		0.8044433986983259 		0.5069192266169399  0.3328426308782261 		Uiso   ? 		C 		-0.08611
C 1.0  		0.019281352814917774 		0.29737952694081854  0.17789136804654448 		Uiso   ? 		C 		-0.08723
C 1.0  		1.0188694213563934 		0.7959564235940721  0.17831357857197142 		Uiso   ? 		C 		-0.08723
C 1.0  		0.5199716163681949 		0.2919815487290215  0.17972094699006116 		Uiso   ? 		C 		-0.08723
C 1.0  		0.518799033074409 		0.7979193247619982  0.17831357857197142 		Uiso   ? 		C 		-0.08723
C 1.0  		0.01892858763801164 		0.29369908725095695  0.3325611571946081 		Uiso   ? 		C 		-0.08607
C 1.0  		1.016310741665591 		0.7942388850721367  0.33129452561832734 		Uiso   ? 		C 		-0.08607
C 1.0  		0.5179869896494762 		0.29566198841888314  0.3308723150929004 		Uiso   ? 		C 		-0.08607
C 1.0  		0.5181768366571569 		0.7949749730101091  0.33270189403641703 		Uiso   ? 		C 		-0.08607
C 1.0  		0.23384450139364582 		0.22205319462165082  0.1777506312047355 		Uiso   ? 		C 		-0.08723
C 1.0  		0.23462367547314647 		0.7238198056727845  0.1790172627810163 		Uiso   ? 		C 		-0.08723
C 1.0  		0.7337199947489963 		0.22352537049759547  0.17831357857197142 		Uiso   ? 		C 		-0.08723
C 1.0  		0.7322909331686416 		0.7208754539208951  0.17592105226121885 		Uiso   ? 		C 		-0.08723
C 1.0  		0.23213578239216168 		0.2203356560997154  0.33340557824546196 		Uiso   ? 		C 		-0.08605
C 1.0  		0.23644627661066356 		0.7240651683187752  0.33410926245450684 		Uiso   ? 		C 		-0.08605
C 1.0  		0.7310298376764653 		0.21984493080773385  0.3319982098273722 		Uiso   ? 		C 		-0.08605
C 1.0  		0.7321113123417442 		0.7213661792128767  0.3308723150929004 		Uiso   ? 		C 		-0.08605
C 1.0  		0.1875575485961676 		0.4779664343900285  0.24882273631826793 		Uiso   ? 		C 		-0.13061
C 1.0  		0.18431468350114355 		0.9767886936892728  0.24643021000751533 		Uiso   ? 		C 		-0.13061
C 1.0  		0.6835008131904422 		0.4762488958680931  0.2489634731600769 		Uiso   ? 		C 		-0.13061
C 1.0  		0.6835527063395056 		0.9782608695652175  0.24924494684369483 		Uiso   ? 		C 		-0.13061
C 1.0  		0.2178826928243674 		0.17567965452939446  0.35592347293489796 		Uiso   ? 		C 		-0.13391
C 1.0  		0.2200266183512939 		0.6772009029345373  0.35536052556766207 		Uiso   ? 		C 		-0.13391
C 1.0  		0.7186322185916204 		0.17592501717538522  0.35536052556766207 		Uiso   ? 		C 		-0.13391
C 1.0  		0.7138931246674418 		0.6730297379526942  0.3521235782060556 		Uiso   ? 		C 		-0.13391
C 1.0  		0.4888710800894228 		0.1702816763175974  0.24938568368550382 		Uiso   ? 		C 		-0.13061
C 1.0  		0.49122749578867886 		0.6718029247227403  0.25037084157816664 		Uiso   ? 		C 		-0.13061
C 1.0  		0.9880544830057277 		0.1788693689272745  0.2450228415894256 		Uiso   ? 		C 		-0.13061
C 1.0  		0.9882355323905605 		0.676464814996565  0.24417842053857178 		Uiso   ? 		C 		-0.13061
C 1.0  		0.3329955388179451 		0.2890371969771322  0.2614890520810757 		Uiso   ? 		C 		-0.03262
C 1.0  		0.32940870616886275 		0.7858965551084504  0.2602224205047949 		Uiso   ? 		C 		-0.03262
C 1.0  		0.8337209928626138 		0.2905093728530769  0.2631778941827834 		Uiso   ? 		C 		-0.03262
C 1.0  		0.8353741993540167 		0.7910491706742566  0.2619112626065026 		Uiso   ? 		C 		-0.03262
C 1.0  		0.1858006861495149 		0.47870252232800087  0.19956484168512664 		Uiso   ? 		C 		-0.13070
C 1.0  		0.18371887995243508 		0.9789969575031898  0.19886115747608177 		Uiso   ? 		C 		-0.13070
C 1.0  		0.6856016431911531 		0.47747570909804693  0.2005499995777895 		Uiso   ? 		C 		-0.13070
C 1.0  		0.6904422022674992 		0.9780155069192268  0.20266105220492409 		Uiso   ? 		C 		-0.13070
C 1.0  		0.1885061173217823 		0.4794386102659731  0.35564199925128004 		Uiso   ? 		C 		-0.12903
C 1.0  		0.18470679450037042 		0.9762979683972913  0.35339020978233643 		Uiso   ? 		C 		-0.12903
C 1.0  		0.6840813426394142 		0.4769849838060654  0.3539531571495723 		Uiso   ? 		C 		-0.12903
C 1.0  		0.6896820519916297 		0.9777701442732359  0.3569086308275608 		Uiso   ? 		C 		-0.12903
C 1.0  		0.4891844994440083 		0.1781332809893022  0.20069073641959845 		Uiso   ? 		C 		-0.13070
C 1.0  		0.48926694079254457 		0.674256551182648  0.19914263115969974 		Uiso   ? 		C 		-0.13070
C 1.0  		0.9884114035135629 		0.1715084895475513  0.19773526274161 		Uiso   ? 		C 		-0.13070
C 1.0  		0.9899747995915174 		0.6722936500147219  0.19717231537437407 		Uiso   ? 		C 		-0.13070
C 1.0  		0.4873595771605318 		0.1715084895475513  0.3545161045168082 		Uiso   ? 		C 		-0.12901
C 1.0  		0.49302602520361166 		0.673275100598685  0.3509976834715839 		Uiso   ? 		C 		-0.12901
C 1.0  		0.9872285940389938 		0.17764255569732065  0.3543753676749992 		Uiso   ? 		C 		-0.12901
C 1.0  		0.9865508851116607 		0.6735204632446757  0.3543753676749992 		Uiso   ? 		C 		-0.12901
C 1.0  		0.20931255896438042 		0.4760035332221023  0.26162978892288463 		Uiso   ? 		C 		-0.03261
C 1.0  		0.20366656328286725 		0.9738443419373835  0.2613483152392667 		Uiso   ? 		C 		-0.03261
C 1.0  		0.7045614119736499 		0.4750220826381392  0.2620519994483116 		Uiso   ? 		C 		-0.03261
C 1.0  		0.7025694161900188 		0.9750711551673374  0.2641630520754462 		Uiso   ? 		C 		-0.03261
C 1.0  		0.48649250818650763 		0.19187358916478559  0.2621927362901206 		Uiso   ? 		C 		-0.03262
C 1.0  		0.48875911347231493 		0.6936402002159192  0.2619112626065026 		Uiso   ? 		C 		-0.03262
C 1.0  		0.9868851134459252 		0.19947983119049956  0.259659473137559 		Uiso   ? 		C 		-0.03262
C 1.0  		0.9860277836916946 		0.6958484640298361  0.2590965257703231 		Uiso   ? 		C 		-0.03262
C 1.0  		0.205095624863222 		0.47649425851408383  0.18549115750422915 		Uiso   ? 		C 		-0.03254
C 1.0  		0.20508177932142097 		0.9775247816272451  0.18535042066242016 		Uiso   ? 		C 		-0.03254
C 1.0  		0.7063840131111669 		0.47526744528413  0.1868985259223189 		Uiso   ? 		C 		-0.03254
C 1.0  		0.7061248080516043 		0.9758072431053096  0.18591336802965605 		Uiso   ? 		C 		-0.03254
C 1.0  		0.35425911587166675 		0.03704975954460693  0.24811905210922303 		Uiso   ? 		C 		-0.13514
C 1.0  		0.34999546688327515 		0.5380802826577682  0.24643021000751533 		Uiso   ? 		C 		-0.13514
C 1.0  		0.8513393676413011 		0.03803121012857003  0.2450228415894256 		Uiso   ? 		C 		-0.13514
C 1.0  		0.852812953305807 		0.5390617332417313  0.24910421000188587 		Uiso   ? 		C 		-0.13514
C 1.0  		0.20543079479443238 		0.4767396211600746  0.33945726244324786 		Uiso   ? 		C 		-0.03209
C 1.0  		0.20251430200777093 		0.9740897045833744  0.338472104550585 		Uiso   ? 		C 		-0.03209
C 1.0  		0.706114581870821 		0.4760035332221023  0.3404424203359107 		Uiso   ? 		C 		-0.03209
C 1.0  		0.7089769907053368 		0.9755618804593189  0.34255347296304534 		Uiso   ? 		C 		-0.03209
C 1.0  		0.4880304039839423 		0.19579939150063796  0.1856318943460381 		Uiso   ? 		C 		-0.03254
C 1.0  		0.4860712775457434 		0.6963391893218177  0.18717999960593684 		Uiso   ? 		C 		-0.03254
C 1.0  		0.986481883677891 		0.19187358916478559  0.1840837890861394 		Uiso   ? 		C 		-0.03254
C 1.0  		0.9873355940711042 		0.6963391893218177  0.18478747329518427 		Uiso   ? 		C 		-0.03254
C 1.0  		0.48476851508528707 		0.19310040239473944  0.34086463086133767 		Uiso   ? 		C 		-0.03210
C 1.0  		0.4898720289250906 		0.6975660025517716  0.3410053677031466 		Uiso   ? 		C 		-0.03210
C 1.0  		0.9864184661329861 		0.1972715673765826  0.3398794729686748 		Uiso   ? 		C 		-0.03210
C 1.0  		0.9855852081013399 		0.6924133869859653  0.3395979992850568 		Uiso   ? 		C 		-0.03210
C 1.0  		0.3230364681289589 		0.4782117970360193  0.24783757842560508 		Uiso   ? 		C 		-0.13514
C 1.0  		0.3216074065486041 		0.9755618804593189  0.2468524205329423 		Uiso   ? 		C 		-0.13514
C 1.0  		0.8196917395539344 		0.4791932476199824  0.24671168369113328 		Uiso   ? 		C 		-0.13514
C 1.0  		0.8239758409038924 		0.9777701442732359  0.24699315737475125 		Uiso   ? 		C 		-0.13514
C 1.0  		0.4872134262990454 		0.30891157130238495  0.24769684158379612 		Uiso   ? 		C 		-0.13515
C 1.0  		0.4876662280701835 		0.8121503582294632  0.24910421000188587 		Uiso   ? 		C 		-0.13515
C 1.0  		0.989025402927946 		0.30915693394837573  0.24600799948208843 		Uiso   ? 		C 		-0.13515
C 1.0  		0.9883259434239877 		0.8126410835214447  0.2472746310583692 		Uiso   ? 		C 		-0.13515
C 1.0  		0.3228568473020616 		0.47870252232800087  0.20026852589417155 		Uiso   ? 		C 		-0.13523
C 1.0  		0.32131390358567374 		0.9775247816272451  0.19829821010884588 		Uiso   ? 		C 		-0.13523
C 1.0  		0.822846222793445 		0.47870252232800087  0.20069073641959845 		Uiso   ? 		C 		-0.13523
C 1.0  		0.8241313900082057 		0.9785062322112082  0.19717231537437407 		Uiso   ? 		C 		-0.13523
C 1.0  		0.2396963647865774 		0.042938463048385514  0.1867577890805099 		Uiso   ? 		C 		-0.03254
C 1.0  		0.23818629041562184 		0.5422514476396114  0.18478747329518427 		Uiso   ? 		C 		-0.03254
C 1.0  		0.7392190929650219 		0.04073019923446855  0.1868985259223189 		Uiso   ? 		C 		-0.03254
C 1.0  		0.7393191295592538 		0.5402885464716852  0.186335578555083 		Uiso   ? 		C 		-0.03254
C 1.0  		0.3237878207819805 		0.4767396211600746  0.35282726241510054 		Uiso   ? 		C 		-0.13392
C 1.0  		0.3218439684435179 		0.9743350672293651  0.3521235782060556 		Uiso   ? 		C 		-0.13392
C 1.0  		0.8225920656528355 		0.47649425851408383  0.35296799925690947 		Uiso   ? 		C 		-0.13392
C 1.0  		0.8247929322477785 		0.9772794189812544  0.35254578873148257 		Uiso   ? 		C 		-0.13392
C 1.0  		0.4878092298477539 		0.30670330748846797  0.2009722101032164 		Uiso   ? 		C 		-0.13523
C 1.0  		0.4888930256589921 		0.8146039846893709  0.2004092627359805 		Uiso   ? 		C 		-0.13523
C 1.0  		0.9907781100436696 		0.31946216507998826  0.19576494695628432 		Uiso   ? 		C 		-0.13523
C 1.0  		0.9891013677995938 		0.8099420944155463  0.2015351574704523 		Uiso   ? 		C 		-0.13523
C 1.0  		0.48817959027035585 		0.3138188242222004  0.3515606308388198 		Uiso   ? 		C 		-0.13391
C 1.0  		0.48818749530517974 		0.8072431053096477  0.35592347293489796 		Uiso   ? 		C 		-0.13391
C 1.0  		0.9887406975878635 		0.3128373736382373  0.3519828413642466 		Uiso   ? 		C 		-0.13391
C 1.0  		0.986796845249401 		0.8104328197075278  0.35339020978233643 		Uiso   ? 		C 		-0.13391
C 1.0  		0.3016800452368614 		0.4750220826381392  0.2624742099737385 		Uiso   ? 		C 		-0.03221
C 1.0  		0.2977668402794167 		0.973353616645402  0.26050389418841285 		Uiso   ? 		C 		-0.03221
C 1.0  		0.8010976889021207 		0.4760035332221023  0.26275568365735646 		Uiso   ? 		C 		-0.03221
C 1.0  		0.8011648561509206 		0.9750711551673374  0.2607853678720308 		Uiso   ? 		C 		-0.03221
C 1.0  		0.3475240491419842 		0.30449504367455105  0.35353094662414536 		Uiso   ? 		C 		-0.12900
C 1.0  		0.34989806008693597 		0.8094513691235646  0.3545161045168082 		Uiso   ? 		C 		-0.12900
C 1.0  		0.848012941291739 		0.30719403278044954  0.35592347293489796 		Uiso   ? 		C 		-0.12900
C 1.0  		0.8521021477150634 		0.8092060064775739  0.3546568413586172 		Uiso   ? 		C 		-0.12900
C 1.0  		0.23837095916147227 		0.03901266071253313  0.33973873612686584 		Uiso   ? 		C 		-0.03209
C 1.0  		0.23866821182829734 		0.541515359701639  0.3404424203359107 		Uiso   ? 		C 		-0.03209
C 1.0  		0.739946373895459 		0.04048483658847778  0.3411461045449556 		Uiso   ? 		C 		-0.03209
C 1.0  		0.7377988290075148 		0.5397978211797037  0.3398794729686748 		Uiso   ? 		C 		-0.03209
C 1.0  		0.4857912468226133 		0.2860928452252429  0.26106684155564874 		Uiso   ? 		C 		-0.03222
C 1.0  		0.48615423818030284 		0.789576994798312  0.2617705257646937 		Uiso   ? 		C 		-0.03222
C 1.0  		0.9863130083178003 		0.289282559623123  0.2613483152392667 		Uiso   ? 		C 		-0.03222
C 1.0  		0.9864130449120323 		0.7888409068603396  0.2602224205047949 		Uiso   ? 		C 		-0.03222
C 1.0  		0.30089582323840774 		0.4760035332221023  0.1857726311878471 		Uiso   ? 		C 		-0.03214
C 1.0  		0.29936167714486783 		0.9765433310432821  0.18492821013699326 		Uiso   ? 		C 		-0.03214
C 1.0  		0.8004930877305644 		0.47649425851408383  0.18647631539689197 		Uiso   ? 		C 		-0.03214
C 1.0  		0.798623771705814 		0.9767886936892728  0.18506894697880222 		Uiso   ? 		C 		-0.03214
C 1.0  		0.29955514351356616 		0.4750220826381392  0.34002020981048375 		Uiso   ? 		C 		-0.03237
C 1.0  		0.30010423217504156 		0.973353616645402  0.3380498940251581 		Uiso   ? 		C 		-0.03237
C 1.0  		0.7991764797283072 		0.4742859947001669  0.34058315717771964 		Uiso   ? 		C 		-0.03237
C 1.0  		0.7988274642552957 		0.9750711551673374  0.3411461045449556 		Uiso   ? 		C 		-0.03237
C 1.0  		0.4871559982700393 		0.2858474825792522  0.18619484171327402 		Uiso   ? 		C 		-0.03214
C 1.0  		0.4869319837018681 		0.7932574344881737  0.18535042066242016 		Uiso   ? 		C 		-0.03214
C 1.0  		0.9867227145627231 		0.29222691137501233  0.1852096838206112 		Uiso   ? 		C 		-0.03214
C 1.0  		0.9868796922249714 		0.7910491706742566  0.1857726311878471 		Uiso   ? 		C 		-0.03214
C 1.0  		0.27156046006814666 		0.3314849347335362  0.11315242081441597 		Uiso   ? 		C 		0.65790
C 1.0  		0.2719058561801403 		0.8315340072627343  0.11357463133984289 		Uiso   ? 		C 		0.65790
C 1.0  		0.7719419465587571 		0.33099420944155467  0.1145597892325057 		Uiso   ? 		C 		0.65790
C 1.0  		0.7721646629118699 		0.8307979193247621  0.11287094713079801 		Uiso   ? 		C 		0.65790
C 1.0  		0.4859074501046058 		0.2910000981450584  0.3383313677087761 		Uiso   ? 		C 		-0.03239
C 1.0  		0.4852056694546882 		0.7881048189223674  0.34086463086133767 		Uiso   ? 		C 		-0.03239
C 1.0  		0.9863370800403848 		0.2880557463931691  0.33945726244324786 		Uiso   ? 		C 		-0.03239
C 1.0  		0.9845335027064988 		0.7893316321523212  0.33861284139239406 		Uiso   ? 		C 		-0.03239
C 1.0  		0.19822507140490422 		0.43895377367749533  0.11287094713079801 		Uiso   ? 		C 		0.65790
C 1.0  		0.19593077503549483 		0.9392482088526843  0.11343389449803391 		Uiso   ? 		C 		0.65790
C 1.0  		0.6959427936915272 		0.4399352242614585  0.1145597892325057 		Uiso   ? 		C 		0.65790
C 1.0  		0.6943341112842751 		0.9377760329767397  0.11357463133984289 		Uiso   ? 		C 		0.65790
C 1.0  		0.19749779047446697 		0.4391991363234862  0.26894810469695135 		Uiso   ? 		C 		0.65813
C 1.0  		0.19543125837712355 		0.9365492197467858  0.26669631522800774 		Uiso   ? 		C 		0.65813
C 1.0  		0.6969066365168783 		0.4384630483855138  0.2675407362788616 		Uiso   ? 		C 		0.65813
C 1.0  		0.6964349412849862 		0.9390028462066936  0.26937031522237825 		Uiso   ? 		C 		0.65813
C 1.0  		0.45056407381712127 		0.18843851212091473  0.11301168397260698 		Uiso   ? 		C 		0.65790
C 1.0  		0.45045162023902374 		0.6879968593581314  0.11470052607431468 		Uiso   ? 		C 		0.65790
C 1.0  		0.9510353707211803 		0.18770242418294242  0.11371536818165187 		Uiso   ? 		C 		0.65790
C 1.0  		0.9501627668672132 		0.6870154087741682  0.11470052607431468 		Uiso   ? 		C 		0.65790
C 1.0  		0.44941828901891345 		0.1840219844930808  0.2679629468042885 		Uiso   ? 		C 		0.65813
C 1.0  		0.452690404098352 		0.6865246834821868  0.26838515732971546 		Uiso   ? 		C 		0.65813
C 1.0  		0.9498502401006519 		0.18745706153695163  0.2673999994370526 		Uiso   ? 		C 		0.65813
C 1.0  		0.9504321981075594 		0.686279320836196  0.26627410470258084 		Uiso   ? 		C 		0.65813
C 1.0  		0.19503771881996126 		0.43895377367749533  0.1784543154137804 		Uiso   ? 		C 		0.65811
C 1.0  		0.19557153338170014 		0.9402296594366474  0.17859505225558936 		Uiso   ? 		C 		0.65811
C 1.0  		0.6984598064140495 		0.4394444989694769  0.1800024206736791 		Uiso   ? 		C 		0.65811
C 1.0  		0.6986496534217301 		0.9387574835607028  0.1800024206736791 		Uiso   ? 		C 		0.65811
C 1.0  		0.19740798006101828 		0.4394444989694769  0.33396852561269785 		Uiso   ? 		C 		0.65779
C 1.0  		0.1940993762751299 		0.9372853076847582  0.3324204203527991 		Uiso   ? 		C 		0.65779
C 1.0  		0.6969395058623106 		0.43895377367749533  0.33354631508727095 		Uiso   ? 		C 		0.65779
C 1.0  		0.6966474314573157 		0.9390028462066936  0.33410926245450684 		Uiso   ? 		C 		0.65779
C 1.0  		0.21682024196271976 		0.17567965452939446  0.24657094684932432 		Uiso   ? 		C 		-0.13514
C 1.0  		0.21611846131280227 		0.6727843753067033  0.24699315737475125 		Uiso   ? 		C 		-0.13514
C 1.0  		0.7177012451117015 		0.1778879183433114  0.24586726264027947 		Uiso   ? 		C 		-0.13514
C 1.0  		0.7092095432533443 		0.6713121994307588  0.2505115784199756 		Uiso   ? 		C 		-0.13514
C 1.0  		0.44978632829555604 		0.1847580724310531  0.1784543154137804 		Uiso   ? 		C 		0.65811
C 1.0  		0.44977248275375503 		0.6857885955442143  0.1800024206736791 		Uiso   ? 		C 		0.65811
C 1.0  		0.9493835927877127 		0.18524879772303465  0.17859505225558936 		Uiso   ? 		C 		0.65811
C 1.0  		0.9502461008037736 		0.6914319364020022  0.17986168383187015 		Uiso   ? 		C 		0.65811
C 1.0  		0.4478739167445903 		0.1847580724310531  0.3336870519290799 		Uiso   ? 		C 		0.65779
C 1.0  		0.45218441096309214 		0.688487584650113  0.33495368350536064 		Uiso   ? 		C 		0.65779
C 1.0  		0.9501284689638457 		0.18843851212091473  0.3325611571946081 		Uiso   ? 		C 		0.65779
C 1.0  		0.9490017079692692 		0.6855432328982236  0.333124104561844 		Uiso   ? 		C 		0.65779
C 1.0  		0.26886161903175676 		0.4387084110315046  0.11399684186526982 		Uiso   ? 		C 		0.65942
C 1.0  		0.27280407397361606 		0.9417018353125921  0.11399684186526982 		Uiso   ? 		C 		0.65942
C 1.0  		0.7706735956606574 		0.43895377367749533  0.11413757870707879 		Uiso   ? 		C 		0.65942
C 1.0  		0.772964272669049 		0.9394935714986752  0.11413757870707879 		Uiso   ? 		C 		0.65942
C 1.0  		0.2714115010997111 		0.4387084110315046  0.2675407362788616 		Uiso   ? 		C 		0.65957
C 1.0  		0.26995836779677207 		0.9372853076847582  0.2671185257534347 		Uiso   ? 		C 		0.65957
C 1.0  		0.7723735170392936 		0.43895377367749533  0.26866663101333343 		Uiso   ? 		C 		0.65957
C 1.0  		0.7739697824626801 		0.9402296594366474  0.2671185257534347 		Uiso   ? 		C 		0.65957
C 1.0  		0.45113079004932605 		0.2635194817940917  0.11357463133984289 		Uiso   ? 		C 		0.65942
C 1.0  		0.44953090526492173 		0.7630778290313083  0.11413757870707879 		Uiso   ? 		C 		0.65942
C 1.0  		0.9499679042656133 		0.26376484444008247  0.1145597892325057 		Uiso   ? 		C 		0.65942
C 1.0  		0.9503943131682078 		0.7618510158013545  0.11399684186526982 		Uiso   ? 		C 		0.65942
C 1.0  		0.448865613321454 		0.25983904210423003  0.2676814731206706 		Uiso   ? 		C 		0.65957
C 1.0  		0.4500697677456138 		0.7616056531553637  0.2678222099624796 		Uiso   ? 		C 		0.65957
C 1.0  		0.9490762766080151 		0.2615565806261655  0.2681036836460975 		Uiso   ? 		C 		0.65957
C 1.0  		0.9490777051659505 		0.7596427519874375  0.2672592625952437 		Uiso   ? 		C 		0.65957
C 1.0  		0.2723272004798936 		0.4396898616154677  0.18028389435729705 		Uiso   ? 		C 		0.65955
C 1.0  		0.2710384139041155 		0.940720384728629  0.17873578909739835 		Uiso   ? 		C 		0.65955
C 1.0  		0.7721369551443797 		0.44018058690744927  0.18042463119910604 		Uiso   ? 		C 		0.65955
C 1.0  		0.772000429843698 		0.9409657473746198  0.1784543154137804 		Uiso   ? 		C 		0.65955
C 1.0  		0.2725308930293752 		0.43797232309353223  0.33270189403641703 		Uiso   ? 		C 		0.65944
C 1.0  		0.27059583831376066 		0.9372853076847582  0.33270189403641703 		Uiso   ? 		C 		0.65944
C 1.0  		0.7706976673832416 		0.4377269604475415  0.3346722098217427 		Uiso   ? 		C 		0.65944
C 1.0  		0.7729971420144812 		0.9399842967906566  0.33354631508727095 		Uiso   ? 		C 		0.65944
C 1.0  		0.45040998559577733 		0.2591029541662578  0.17873578909739835 		Uiso   ? 		C 		0.65955
C 1.0  		0.44983320585069997 		0.7628324663853175  0.1795802101482522 		Uiso   ? 		C 		0.65955
C 1.0  		0.9508988777455321 		0.2618019432721563  0.18028389435729705 		Uiso   ? 		C 		0.65955
C 1.0  		0.9509179015491633 		0.7633231916772991  0.1790172627810163 		Uiso   ? 		C 		0.65955
C 1.0  		0.44959289425189136 		0.2595936794582393  0.33270189403641703 		Uiso   ? 		C 		0.65945
C 1.0  		0.449513310019226 		0.7596427519874375  0.33495368350536064 		Uiso   ? 		C 		0.65945
C 1.0  		0.9503512176419923 		0.2615565806261655  0.33298336772003506 		Uiso   ? 		C 		0.65945
C 1.0  		0.9486198554758591 		0.7591520266954559  0.33354631508727095 		Uiso   ? 		C 		0.65945
C 1.0  		0.33576670868107683 		0.29075473549906766  0.18464673645337532 		Uiso   ? 		C 		-0.03254
C 1.0  		0.328624484170409 		0.7868780056924134  0.186335578555083 		Uiso   ? 		C 		-0.03254
C 1.0  		0.8323715155149244 		0.2878103837471784  0.1868985259223189 		Uiso   ? 		C 		-0.03254
C 1.0  		0.8333960491121868 		0.7900677200902936  0.18535042066242016 		Uiso   ? 		C 		-0.03254
C 1.0  		0.3290304407114369 		0.2853567572872706  0.338894315076012 		Uiso   ? 		C 		-0.03212
C 1.0  		0.32910640558308457 		0.7861419177544412  0.34058315717771964 		Uiso   ? 		C 		-0.03212
C 1.0  		0.8307285352043046 		0.287074295809206  0.34072389401952863 		Uiso   ? 		C 		-0.03212
C 1.0  		0.8310410619708661 		0.7866326430464227  0.34058315717771964 		Uiso   ? 		C 		-0.03212
C 1.0  		0.05081824785016784 		0.22573363431151244  0.1856318943460381 		Uiso   ? 		C 		-0.03254
C 1.0  		0.05226776179208925 		0.7279909706546276  0.1857726311878471 		Uiso   ? 		C 		-0.03254
C 1.0  		0.552189970034673 		0.22892334870939252  0.18732073644774583 		Uiso   ? 		C 		-0.03254
C 1.0  		0.551906693252526 		0.7306899597605262  0.18746147328955481 		Uiso   ? 		C 		-0.03254
C 1.0  		0.05139877729913993 		0.22646972224948478  0.338894315076012 		Uiso   ? 		C 		-0.03211
C 1.0  		0.04965214103327048 		0.7270095200706645  0.34086463086133767 		Uiso   ? 		C 		-0.03211
C 1.0  		0.5508733620324158 		0.22671508489547554  0.3398794729686748 		Uiso   ? 		C 		-0.03211
C 1.0  		0.5546273985245298 		0.7284816959466092  0.3395979992850568 		Uiso   ? 		C 		-0.03211
C 1.0  		0.30122342911176125 		0.3206889783099421  0.18436526276975734 		Uiso   ? 		C 		-0.03254
C 1.0  		0.29856989108855725 		0.8219648640690942  0.18436526276975734 		Uiso   ? 		C 		-0.03254
C 1.0  		0.8019817525018621 		0.3226518794778683  0.186335578555083 		Uiso   ? 		C 		-0.03254
C 1.0  		0.8000138284408153 		0.8214741387771126  0.1856318943460381 		Uiso   ? 		C 		-0.03254
C 1.0  		0.29839531818061305 		0.319707527725979  0.3395979992850568 		Uiso   ? 		C 		-0.03206
C 1.0  		0.29816018484363455 		0.819020512317205  0.3393165256014389 		Uiso   ? 		C 		-0.03206
C 1.0  		0.7995457525699408 		0.32117970360192366  0.34002020981048375 		Uiso   ? 		C 		-0.03206
C 1.0  		0.8003489983720258 		0.8217195014231035  0.3395979992850568 		Uiso   ? 		C 		-0.03206
C 1.0  		0.3535089644586026 		0.31136519776229266  0.24713389421656023 		Uiso   ? 		C 		-0.13061
C 1.0  		0.35199889008764695 		0.8106781823535185  0.24783757842560508 		Uiso   ? 		C 		-0.13061
C 1.0  		0.856041745541052 		0.3160270880361174  0.25149673631263847 		Uiso   ? 		C 		-0.13061
C 1.0  		0.8577518931004715 		0.8158307979193249  0.24924494684369483 		Uiso   ? 		C 		-0.13061
C 1.0  		0.05073723505956704 		0.22769653547943863  0.2617705257646937 		Uiso   ? 		C 		-0.03261
C 1.0  		0.05159742192966843 		0.727500245362646  0.2593779994539411 		Uiso   ? 		C 		-0.03261
C 1.0  		0.5516247146854373 		0.2252429090195309  0.2620519994483116 		Uiso   ? 		C 		-0.03261
C 1.0  		0.5544718494202168 		0.7277456080086369  0.2614890520810757 		Uiso   ? 		C 		-0.03261
C 1.0  		0.05037114362688319 		0.32216115418588676  0.2626149468155475 		Uiso   ? 		C 		-0.03221
C 1.0  		0.05172204953250803 		0.8229463146530573  0.2613483152392667 		Uiso   ? 		C 		-0.03221
C 1.0  		0.5513572312890499 		0.32117970360192366  0.2609261047138398 		Uiso   ? 		C 		-0.03221
C 1.0  		0.5503707452990501 		0.8219648640690942  0.2624742099737385 		Uiso   ? 		C 		-0.03221
C 1.0  		0.3012650960800414 		0.3228972421238591  0.2613483152392667 		Uiso   ? 		C 		-0.03262
C 1.0  		0.2994439235004596 		0.8207380508391403  0.26162978892288463 		Uiso   ? 		C 		-0.03262
C 1.0  		0.7994559421564921 		0.32142506624791445  0.2620519994483116 		Uiso   ? 		C 		-0.03262
C 1.0  		0.8008068480621169 		0.8222102267150849  0.26233347313192956 		Uiso   ? 		C 		-0.03262
C 1.0  		0.26588592868118666 		0.07704387084110316  0.11301168397260698 		Uiso   ? 		C 		0.65790
C 1.0  		0.2669257363781854 		0.5763568554323291  0.11301168397260698 		Uiso   ? 		C 		0.65790
C 1.0  		0.7667252648618883 		0.07704387084110316  0.11399684186526982 		Uiso   ? 		C 		0.65790
C 1.0  		0.7639402494569554 		0.5763568554323291  0.11301168397260698 		Uiso   ? 		C 		0.65790
C 1.0  		0.2650271703690206 		0.07532633231916773  0.2671185257534347 		Uiso   ? 		C 		0.65813
C 1.0  		0.26713822655051495 		0.5763568554323291  0.26866663101333343 		Uiso   ? 		C 		0.65813
C 1.0  		0.7660220556540354 		0.07606242025714006  0.2692295783805693 		Uiso   ? 		C 		0.65813
C 1.0  		0.7658197916624891 		0.5758661301403475  0.26908884153876034 		Uiso   ? 		C 		0.65813
C 1.0  		0.34224601140315813 		0.26376484444008247  0.11413757870707879 		Uiso   ? 		C 		0.65790
C 1.0  		0.33887166892640536 		0.7606242025714006  0.11399684186526982 		Uiso   ? 		C 		0.65790
C 1.0  		0.8419571580313477 		0.2627833938561194  0.11427831554888776 		Uiso   ? 		C 		0.65790
C 1.0  		0.8410516848319485 		0.7616056531553637  0.11371536818165187 		Uiso   ? 		C 		0.65790
C 1.0  		0.34003777574330263 		0.2593483168122485  0.2673999994370526 		Uiso   ? 		C 		0.65813
C 1.0  		0.3392309105802001 		0.7596427519874375  0.2668370520698167 		Uiso   ? 		C 		0.65813
C 1.0  		0.841131269064614 		0.2615565806261655  0.26838515732971546 		Uiso   ? 		C 		0.65813
C 1.0  		0.8419914559347154 		0.7613602905093729  0.2672592625952437 		Uiso   ? 		C 		0.65813
C 1.0  		0.26616415754438055 		0.07802532142506625  0.1790172627810163 		Uiso   ? 		C 		0.65811
C 1.0  		0.2675391351725897 		0.577583668662283  0.17859505225558936 		Uiso   ? 		C 		0.65811
C 1.0  		0.765997983931451 		0.07728923348709393  0.17986168383187015 		Uiso   ? 		C 		0.65811
C 1.0  		0.7671604713873306 		0.5768475807243105  0.1795802101482522 		Uiso   ? 		C 		0.65811
C 1.0  		0.26752011136895854 		0.07606242025714006  0.33298336772003506 		Uiso   ? 		C 		0.65778
C 1.0  		0.2668118542421524 		0.5778290313082737  0.33453147297993374 		Uiso   ? 		C 		0.65778
C 1.0  		0.7667252648618883 		0.07704387084110316  0.33439073613812476 		Uiso   ? 		C 		0.65778
C 1.0  		0.765125380077484 		0.5766022180783198  0.33340557824546196 		Uiso   ? 		C 		0.65778
C 1.0  		0.3426862658475536 		0.2608204926881932  0.17915799962282525 		Uiso   ? 		C 		0.65811
C 1.0  		0.3386591787540758 		0.7606242025714006  0.1794394733064432 		Uiso   ? 		C 		0.65811
C 1.0  		0.8426515696163529 		0.26204730591814707  0.17986168383187015 		Uiso   ? 		C 		0.65811
C 1.0  		0.8427275344880005 		0.7628324663853175  0.1794394733064432 		Uiso   ? 		C 		0.65811
C 1.0  		0.3406752462602912 		0.2593483168122485  0.33143526246013627 		Uiso   ? 		C 		0.65779
C 1.0  		0.3387730608901088 		0.7591520266954559  0.33382778877088887 		Uiso   ? 		C 		0.65779
C 1.0  		0.8406405500290905 		0.2605751300422024  0.33410926245450684 		Uiso   ? 		C 		0.65779
C 1.0  		0.8401600571743504 		0.7593973893414467  0.33382778877088887 		Uiso   ? 		C 		0.65779
C 1.0  		0.08776147659702288 		0.25542251447639613  0.1794394733064432 		Uiso   ? 		C 		0.65811
C 1.0  		0.08921099053894432 		0.7576798508195113  0.17986168383187015 		Uiso   ? 		C 		0.65811
C 1.0  		0.5876939110203899 		0.25615860241436844  0.18070610488272398 		Uiso   ? 		C 		0.65811
C 1.0  		0.5895026666161061 		0.7574344881735205  0.1795802101482522 		Uiso   ? 		C 		0.65811
C 1.0  		0.08806377718280109 		0.25517715183040535  0.333124104561844 		Uiso   ? 		C 		0.65779
C 1.0  		0.0870268266016731 		0.7520365099617234  0.3328426308782261 		Uiso   ? 		C 		0.65779
C 1.0  		0.5870235711579691 		0.2556678771223869  0.3325611571946081 		Uiso   ? 		C 		0.65779
C 1.0  		0.5899845880287815 		0.7566984002355482  0.333124104561844 		Uiso   ? 		C 		0.65779
C 1.0  		0.21491602741462323 		0.040975561880459324  0.19900189431789075 		Uiso   ? 		C 		-0.13070
C 1.0  		0.21553085476696293 		0.5402885464716852  0.19900189431789075 		Uiso   ? 		C 		-0.13070
C 1.0  		0.7165307879709307 		0.038276572774560806  0.20111294694502538 		Uiso   ? 		C 		-0.13070
C 1.0  		0.715723922807828 		0.5385710079497498  0.20012778905236253 		Uiso   ? 		C 		-0.13070
C 1.0  		0.2723358844437525 		0.3287859456276377  0.17831357857197142 		Uiso   ? 		C 		0.65811
C 1.0  		0.2733122745958463 		0.8334969084306605  0.17760989436292654 		Uiso   ? 		C 		0.65811
C 1.0  		0.7733965084196315 		0.3305034841495731  0.1794394733064432 		Uiso   ? 		C 		0.65811
C 1.0  		0.7721646629118699 		0.8307979193247621  0.1788765259392073 		Uiso   ? 		C 		0.65811
C 1.0  		0.2708484532374458 		0.3287859456276377  0.333124104561844 		Uiso   ? 		C 		0.65777
C 1.0  		0.27183131986642806 		0.8288350181568359  0.3322796835109902 		Uiso   ? 		C 		0.65777
C 1.0  		0.7712956784189205 		0.32927667091961926  0.33382778877088887 		Uiso   ? 		C 		0.65777
C 1.0  		0.7732271137735176 		0.8307979193247621  0.33340557824546196 		Uiso   ? 		C 		0.65777
C 1.0  		0.08852162687289233 		0.2556678771223869  0.11526347344155058 		Uiso   ? 		C 		0.65790
C 1.0  		0.08733792481029917 		0.7535086858376682  0.11357463133984289 		Uiso   ? 		C 		0.65790
C 1.0  		0.5877596497112543 		0.2571400529983316  0.1151227365997416 		Uiso   ? 		C 		0.65790
C 1.0  		0.5875726598194444 		0.7539994111296496  0.11413757870707879 		Uiso   ? 		C 		0.65790
C 1.0  		0.08772860725159068 		0.25493178918441456  0.2692295783805693 		Uiso   ? 		C 		0.65813
C 1.0  		0.08770596408694176 		0.7542447737756404  0.26627410470258084 		Uiso   ? 		C 		0.65813
C 1.0  		0.5880202833287524 		0.2546864265384238  0.2672592625952437 		Uiso   ? 		C 		0.65813
C 1.0  		0.5901970782011111 		0.7566984002355482  0.2669777889116257 		Uiso   ? 		C 		0.65813
C 1.0  		0.20497223082537347 		0.22720581018745709  0.2617705257646937 		Uiso   ? 		C 		-0.03221
C 1.0  		0.20726290783376514 		0.7277456080086369  0.2609261047138398 		Uiso   ? 		C 		-0.03221
C 1.0  		0.7078883252842018 		0.22965943664736485  0.26064463103022184 		Uiso   ? 		C 		-0.03221
C 1.0  		0.7065907410855757 		0.7289724212385907  0.26106684155564874 		Uiso   ? 		C 		-0.03221
C 1.0  		0.27148592375443437 		0.3287859456276377  0.2669777889116257 		Uiso   ? 		C 		0.65813
C 1.0  		0.27061331990046733 		0.8280989302188635  0.2668370520698167 		Uiso   ? 		C 		0.65813
C 1.0  		0.7715410379366823 		0.3297673962116008  0.2682444204879065 		Uiso   ? 		C 		0.65813
C 1.0  		0.7722544733253185 		0.8305525566787713  0.2681036836460975 		Uiso   ? 		C 		0.65813
C 1.0  		0.05216967304181598 		0.3236333300618314  0.18605410487146506 		Uiso   ? 		C 		-0.03214
C 1.0  		0.0521141605317349 		0.8224555893610757  0.18605410487146506 		Uiso   ? 		C 		-0.03214
C 1.0  		0.5514382440796507 		0.31921680243399747  0.18788368381498172 		Uiso   ? 		C 		-0.03214
C 1.0  		0.5515318041969942 		0.8234370399450388  0.18661705223870095 		Uiso   ? 		C 		-0.03214
C 1.0  		0.0508947320078388 		0.3236333300618314  0.3390350519178209 		Uiso   ? 		C 		-0.03237
C 1.0  		0.050160082012489116 		0.8202473255471587  0.338894315076012 		Uiso   ? 		C 		-0.03237
C 1.0  		0.5504919964999955 		0.32412405535381295  0.33790915718334913 		Uiso   ? 		C 		-0.03237
C 1.0  		0.5516456863330272 		0.8219648640690942  0.3395979992850568 		Uiso   ? 		C 		-0.03237
C 1.0  		0.20670502154944187 		0.22769653547943863  0.18506894697880222 		Uiso   ? 		C 		-0.03214
C 1.0  		0.20898042445809714 		0.7311806850525077  0.1867577890805099 		Uiso   ? 		C 		-0.03214
C 1.0  		0.7064819068684959 		0.22769653547943863  0.1856318943460381 		Uiso   ? 		C 		-0.03214
C 1.0  		0.708715642808871 		0.7289724212385907  0.1852096838206112 		Uiso   ? 		C 		-0.03214
C 1.0  		0.2047838123756282 		0.22597899695750323  0.3411461045449556 		Uiso   ? 		C 		-0.03238
C 1.0  		0.2078763066281694 		0.7289724212385907  0.34142757822857356 		Uiso   ? 		C 		-0.03238
C 1.0  		0.7030644688655276 		0.2242614584355678  0.3390350519178209 		Uiso   ? 		C 		-0.03238
C 1.0  		0.7039334533584769 		0.7257827068407107  0.33776842034154014 		Uiso   ? 		C 		-0.03238
C 1.0  		0.33302769388440956 		0.04048483658847778  0.18478747329518427 		Uiso   ? 		C 		-0.03214
C 1.0  		0.3332832795829547 		0.5407792717636668  0.18535042066242016 		Uiso   ? 		C 		-0.03214
C 1.0  		0.8319634161369933 		0.04220237511041319  0.18506894697880222 		Uiso   ? 		C 		-0.03214
C 1.0  		0.836624354386442 		0.5432328982235745  0.18506894697880222 		Uiso   ? 		C 		-0.03214
C 1.0  		0.3328962165026808 		0.03852193542055158  0.338894315076012 		Uiso   ? 		C 		-0.03240
C 1.0  		0.33379807034106235 		0.540533909117676  0.34002020981048375 		Uiso   ? 		C 		-0.03240
C 1.0  		0.8339327687559756 		0.04146628717244087  0.3398794729686748 		Uiso   ? 		C 		-0.03240
C 1.0  		0.8308695244878489 		0.5397978211797037  0.34002020981048375 		Uiso   ? 		C 		-0.03240
C 1.0  		0.23770818335690838 		0.19408185297870253  0.18506894697880222 		Uiso   ? 		C 		-0.03214
C 1.0  		0.23973822674780193 		0.6970752772597901  0.18605410487146506 		Uiso   ? 		C 		-0.03214
C 1.0  		0.7380327287795022 		0.19432721562469332  0.18535042066242016 		Uiso   ? 		C 		-0.03214
C 1.0  		0.7399970334795314 		0.6963391893218177  0.18478747329518427 		Uiso   ? 		C 		-0.03214
C 1.0  		0.23834565387389697 		0.19408185297870253  0.3410053677031466 		Uiso   ? 		C 		-0.03236
C 1.0  		0.24293437695559267 		0.6987928157817254  0.34227199927942736 		Uiso   ? 		C 		-0.03236
C 1.0  		0.7392835980908952 		0.1955540288546472  0.3403016834941017 		Uiso   ? 		C 		-0.03236
C 1.0  		0.7377735237199395 		0.694867013445873  0.33917578875962995 		Uiso   ? 		C 		-0.03236
C 1.0  		0.048578977029849875 		0.20340563352635196  0.19970557852693563 		Uiso   ? 		C 		-0.13070
C 1.0  		0.050403006725302346 		0.7017371675336147  0.19660936800713819 		Uiso   ? 		C 		-0.13070
C 1.0  		0.5508247316262574 		0.20536853469427815  0.20083147326140743 		Uiso   ? 		C 		-0.13070
C 1.0  		0.5501910108131636 		0.7098341348513102  0.20237957852130614 		Uiso   ? 		C 		-0.13070
C 1.0  		0.332504105503454 		0.03901266071253313  0.2613483152392667 		Uiso   ? 		C 		-0.03222
C 1.0  		0.33066765882413585 		0.5397978211797037  0.26120757839745773 		Uiso   ? 		C 		-0.03222
C 1.0  		0.8328943896169123 		0.040239473942487  0.2609261047138398 		Uiso   ? 		C 		-0.03222
C 1.0  		0.830207982248276 		0.5410246344096575  0.2614890520810757 		Uiso   ? 		C 		-0.03222
C 1.0  		0.23844426191019352 		0.1955540288546472  0.2609261047138398 		Uiso   ? 		C 		-0.03221
C 1.0  		0.23941833091632786 		0.6938855628619099  0.26064463103022184 		Uiso   ? 		C 		-0.03221
C 1.0  		0.7395946962995212 		0.19702620473059185  0.2609261047138398 		Uiso   ? 		C 		-0.03221
C 1.0  		0.7362532231682006 		0.6943762881538915  0.2624742099737385 		Uiso   ? 		C 		-0.03221
C 1.0  		0.04767855174940377 		0.19947983119049956  0.3490273676862582 		Uiso   ? 		C 		-0.12901
C 1.0  		0.04756841931726563 		0.7054176072234764  0.355501262409471 		Uiso   ? 		C 		-0.12901
C 1.0  		0.548233182590023 		0.20316027088036118  0.3540938939913813 		Uiso   ? 		C 		-0.12901
C 1.0  		0.5528700491168873 		0.7054176072234764  0.35367168346595435 		Uiso   ? 		C 		-0.12901
C 1.0  		0.08596672921101851 		0.331730297379527  0.11371536818165187 		Uiso   ? 		C 		0.65942
C 1.0  		0.08724309880293113 		0.829816468740799  0.11357463133984289 		Uiso   ? 		C 		0.65942
C 1.0  		0.5890865162193285 		0.3324663853174993  0.11484126291612365 		Uiso   ? 		C 		0.65942
C 1.0  		0.5867417552587912 		0.8288350181568359  0.11357463133984289 		Uiso   ? 		C 		0.65942
C 1.0  		0.08716713393128343 		0.3290313082736284  0.2679629468042885 		Uiso   ? 		C 		0.65957
C 1.0  		0.0874139220069805 		0.827608204926882  0.26613336786077185 		Uiso   ? 		C 		0.65957
C 1.0  		0.5878597186305199 		0.3300127588575915  0.2675407362788616 		Uiso   ? 		C 		0.65957
C 1.0  		0.587289415362331 		0.8290803808028266  0.26852589417152445 		Uiso   ? 		C 		0.65957
C 1.0  		0.04956981334372332 		0.3435077043870841  0.24797831526741407 		Uiso   ? 		C 		-0.13514
C 1.0  		0.04998094814658144 		0.8445382275002454  0.24868199947645894 		Uiso   ? 		C 		-0.13514
C 1.0  		0.5488888489726861 		0.3430169790951026  0.24854126263464998 		Uiso   ? 		C 		-0.13514
C 1.0  		0.5497249641202031 		0.8440475022082639  0.24994863105273973 		Uiso   ? 		C 		-0.13514
C 1.0  		0.19628701358939613 		0.25615860241436844  0.11371536818165187 		Uiso   ? 		C 		0.65941
C 1.0  		0.19748237039070787 		0.7562076749435667  0.11441905239069673 		Uiso   ? 		C 		0.65941
C 1.0  		0.6965458203211257 		0.25542251447639613  0.11470052607431468 		Uiso   ? 		C 		0.65941
C 1.0  		0.7010359353665248 		0.7586613014034744  0.11258947344718007 		Uiso   ? 		C 		0.65941
C 1.0  		0.1950930853460197 		0.25419570124644225  0.2681036836460975 		Uiso   ? 		C 		0.65956
C 1.0  		0.19655787338767752 		0.7535086858376682  0.2681036836460975 		Uiso   ? 		C 		0.65956
C 1.0  		0.6983684214586428 		0.2556678771223869  0.2681036836460975 		Uiso   ? 		C 		0.65956
C 1.0  		0.698542994366587 		0.757925213465502  0.2672592625952437 		Uiso   ? 		C 		0.65956
C 1.0  		0.08772359165767124 		0.33099420944155467  0.1794394733064432 		Uiso   ? 		C 		0.65955
C 1.0  		0.08688385714913643 		0.8307979193247621  0.1788765259392073 		Uiso   ? 		C 		0.65955
C 1.0  		0.5875574180447417 		0.33025812150358236  0.180565368040915 		Uiso   ? 		C 		0.65955
C 1.0  		0.5870199841219851 		0.829816468740799  0.17972094699006116 		Uiso   ? 		C 		0.65955
C 1.0  		0.08738842172646084 		0.3307488467955639  0.33340557824546196 		Uiso   ? 		C 		0.65945
C 1.0  		0.08662970000852682 		0.8285896555108451  0.3322796835109902 		Uiso   ? 		C 		0.65945
C 1.0  		0.58731205852698 		0.3297673962116008  0.33382778877088887 		Uiso   ? 		C 		0.65945
C 1.0  		0.5880495656382005 		0.8293257434488174  0.33354631508727095 		Uiso   ? 		C 		0.65945
C 1.0  		0.1990822551751122 		0.25664932770635  0.1794394733064432 		Uiso   ? 		C 		0.65955
C 1.0  		0.19995123966806147 		0.7581705761114929  0.1800024206736791 		Uiso   ? 		C 		0.65955
C 1.0  		0.6975184607693246 		0.2556678771223869  0.1794394733064432 		Uiso   ? 		C 		0.65955
C 1.0  		0.7003327261586718 		0.7576798508195113  0.1788765259392073 		Uiso   ? 		C 		0.65955
C 1.0  		0.1959999871033543 		0.25345961330846994  0.33453147297993374 		Uiso   ? 		C 		0.65944
C 1.0  		0.19790735073536694 		0.7562076749435667  0.3348129466635517 		Uiso   ? 		C 		0.65944
C 1.0  		0.6942565718706695 		0.25296888801648837  0.33410926245450684 		Uiso   ? 		C 		0.65944
C 1.0  		0.6985670660891712 		0.7566984002355482  0.3325611571946081 		Uiso   ? 		C 		0.65944
C 1.0  		0.3408949595135106 		0.07704387084110316  0.17873578909739835 		Uiso   ? 		C 		0.65955
C 1.0  		0.34021077410928885 		0.577583668662283  0.1795802101482522 		Uiso   ? 		C 		0.65955
C 1.0  		0.8410070147637749 		0.07728923348709393  0.17817284173016246 		Uiso   ? 		C 		0.65955
C 1.0  		0.8405112478092984 		0.5790558445382276  0.18098757856634196 		Uiso   ? 		C 		0.65955
C 1.0  		0.3417930636479974 		0.07459024438119541  0.3319982098273722 		Uiso   ? 		C 		0.65945
C 1.0  		0.34209031631482245 		0.5770929433703014  0.3346722098217427 		Uiso   ? 		C 		0.65945
C 1.0  		0.8399774332475596 		0.07777995877907548  0.33382778877088887 		Uiso   ? 		C 		0.65945
C 1.0  		0.8381562606679778 		0.5756207674943568  0.3336870519290799 		Uiso   ? 		C 		0.65945
C 1.0  		0.26800214644062303 		0.18794778682893318  0.17915799962282525 		Uiso   ? 		C 		0.65955
C 1.0  		0.26850309165692976 		0.6887329472961037  0.17972094699006116 		Uiso   ? 		C 		0.65955
C 1.0  		0.7679586525865744 		0.18745706153695163  0.18028389435729705 		Uiso   ? 		C 		0.65955
C 1.0  		0.7671517874234717 		0.6877514967121405  0.17972094699006116 		Uiso   ? 		C 		0.65955
C 1.0  		0.2656800286447346 		0.1850034350770439  0.3336870519290799 		Uiso   ? 		C 		0.65944
C 1.0  		0.26700686282777514 		0.6870154087741682  0.33340557824546196 		Uiso   ? 		C 		0.65944
C 1.0  		0.7656124630681016 		0.1857395230150162  0.333264841403653 		Uiso   ? 		C 		0.65944
C 1.0  		0.7660893365618241 		0.6877514967121405  0.333264841403653 		Uiso   ? 		C 		0.65944
C 1.0  		0.34309439755051824 		0.07974285994700167  0.11315242081441597 		Uiso   ? 		C 		0.65942
C 1.0  		0.33814281345401004 		0.5768475807243105  0.11371536818165187 		Uiso   ? 		C 		0.65942
C 1.0  		0.8416532829036115 		0.07900677200902935  0.11343389449803391 		Uiso   ? 		C 		0.65942
C 1.0  		0.8410501102899905 		0.577583668662283  0.11484126291612365 		Uiso   ? 		C 		0.65942
C 1.0  		0.33973390061556646 		0.0755716949651585  0.2673999994370526 		Uiso   ? 		C 		0.65957
C 1.0  		0.34209031631482245 		0.5770929433703014  0.26866663101333343 		Uiso   ? 		C 		0.65957
C 1.0  		0.8404593546602351 		0.07704387084110316  0.2671185257534347 		Uiso   ? 		C 		0.65957
C 1.0  		0.8390150189801439 		0.5773383060162922  0.2679629468042885 		Uiso   ? 		C 		0.65957
C 1.0  		0.21249530158243823 		0.03655903425262538  0.248400525792841 		Uiso   ? 		C 		-0.13061
C 1.0  		0.2197389912452734 		0.5380802826577682  0.24769684158379612 		Uiso   ? 		C 		-0.13061
C 1.0  		0.7150192850420396 		0.039503386004514675  0.24882273631826793 		Uiso   ? 		C 		-0.13061
C 1.0  		0.711408380670373 		0.5375895573657866  0.2510745257872115 		Uiso   ? 		C 		-0.13061
C 1.0  		0.3227247693003541 		0.3403179899892041  0.19829821010884588 		Uiso   ? 		C 		-0.13070
C 1.0  		0.31945783248274584 		0.8403670625184022  0.19900189431789075 		Uiso   ? 		C 		-0.13070
C 1.0  		0.8211369031719823 		0.3405633526351948  0.20195736799587924 		Uiso   ? 		C 		-0.13070
C 1.0  		0.8218174692151863 		0.8408577878103838  0.20012778905236253 		Uiso   ? 		C 		-0.13070
C 1.0  		0.21186662868829753 		0.038276572774560806  0.09443442085382228 		Uiso   ? 		C 		-0.12965
C 1.0  		0.21633914848800093 		0.5380802826577682  0.09232336822668766 		Uiso   ? 		C 		-0.12965
C 1.0  		0.7149535463511753 		0.03852193542055158  0.09401221032839535 		Uiso   ? 		C 		-0.12965
C 1.0  		0.7152332037723046 		0.5375895573657866  0.09218263138487867 		Uiso   ? 		C 		-0.12965
C 1.0  		0.22804373553685453 		0.11482971832368243  -0.007881263141302604 		Uiso   ? 		C 		0.54392
C 1.0  		0.22848773968514474 		0.6163509667288253  -0.004925789463314128 		Uiso   ? 		C 		0.54392
C 1.0  		0.7308940913048185 		0.11630189419962705  -0.006473894723212853 		Uiso   ? 		C 		0.54392
C 1.0  		0.7288187615846272 		0.6119344391009913  -0.005488736830550028 		Uiso   ? 		C 		0.54392
C 1.0  		0.4116921854975847 		0.11409363038571009  -0.007599789457684654 		Uiso   ? 		C 		0.54392
C 1.0  		0.4074021436406494 		0.6099715379330651  -0.010414526293864156 		Uiso   ? 		C 		0.54392
C 1.0  		0.9156290638497806 		0.11433899303170086  -0.009992315768437229 		Uiso   ? 		C 		0.54392
C 1.0  		0.917078577791702 		0.616596329374816  -0.0068961052486397785 		Uiso   ? 		C 		0.54392
C 1.0  		0.3485383565584632 		0.3069486701344587  0.04813199989866948 		Uiso   ? 		C 		-0.13077
C 1.0  		0.3546802495373301 		0.8126410835214447  0.045035789378872024 		Uiso   ? 		C 		-0.13077
C 1.0  		0.8555510265055285 		0.3150456374521543  0.043628420960782274 		Uiso   ? 		C 		-0.13077
C 1.0  		0.8578745728593523 		0.8160761605653156  0.04123589465002969 		Uiso   ? 		C 		-0.13077
C 1.0  		0.4142853090757772 		0.3003238786927078  -0.007881263141302604 		Uiso   ? 		C 		0.54391
C 1.0  		0.4149482798732855 		0.797183236824026  -0.005770210514167979 		Uiso   ? 		C 		0.54391
C 1.0  		0.9144214360486258 		0.29934242810874473  -0.00858494735034748 		Uiso   ? 		C 		0.54391
C 1.0  		0.9113012507124827 		0.7984100500539798  -0.009851578926628256 		Uiso   ? 		C 		0.54391
C 1.0  		0.12509767660609517 		0.2195995681617431  -0.007740526299493629 		Uiso   ? 		C 		0.54391
C 1.0  		0.12124141271666683 		0.7171950142310335  -0.009007157875774404 		Uiso   ? 		C 		0.54391
C 1.0  		0.6258384047505002 		0.21812739228579844  -0.01027378945205518 		Uiso   ? 		C 		0.54391
C 1.0  		0.6247380366244673 		0.7203847286289136  -0.009288631559392356 		Uiso   ? 		C 		0.54391
C 1.0  		0.12303129049277439 		0.4028854647168515  -0.007177578932257728 		Uiso   ? 		C 		0.54392
C 1.0  		0.1260668436772991 		0.9066149769359113  -0.01055526313567313 		Uiso   ? 		C 		0.54392
C 1.0  		0.626240887914533 		0.40337619000883307  -0.00830347366672953 		Uiso   ? 		C 		0.54392
C 1.0  		0.6241590817174532 		0.903670625184022  -0.00830347366672953 		Uiso   ? 		C 		0.54392
C 1.0  		0.3094597079394843 		0.40558445382275005  -0.00858494735034748 		Uiso   ? 		C 		0.54392
C 1.0  		0.30798897939084935 		0.9007262734321327  -0.00858494735034748 		Uiso   ? 		C 		0.54392
C 1.0  		0.8091051158768094 		0.40362155265482386  -0.007881263141302604 		Uiso   ? 		C 		0.54392
C 1.0  		0.8097768842971657 		0.9021984493080775  -0.007036842090448754 		Uiso   ? 		C 		0.54392
C 1.0  		0.16586438123090172 		0.2905093728530769  0.07050915774629651 		Uiso   ? 		C 		0.60440
C 1.0  		0.15932028141490173 		0.7908038080282658  0.06980547353725164 		Uiso   ? 		C 		0.60440
C 1.0  		0.6621187440338023 		0.2902640102070861  0.07107210511353242 		Uiso   ? 		C 		0.60440
C 1.0  		0.658654591143601 		0.787368730984395  0.06952399985363368 		Uiso   ? 		C 		0.60440
C 1.0  		0.04885780651302249 		0.3408087152811856  0.047146842006006655 		Uiso   ? 		C 		-0.13600
C 1.0  		0.05020871241864733 		0.8415938757483562  0.046865368322388704 		Uiso   ? 		C 		-0.13600
C 1.0  		0.551579006045217 		0.34669741878496424  0.04222105254269252 		Uiso   ? 		C 		-0.13600
C 1.0  		0.5505091861186568 		0.8430660516243008  0.04447284201163612 		Uiso   ? 		C 		-0.13600
C 1.0  		0.23913792689119726 		0.3724604966139955  0.06952399985363368 		Uiso   ? 		C 		0.60440
C 1.0  		0.23547887907436207 		0.8730002944351752  0.0682573682773529 		Uiso   ? 		C 		0.60440
C 1.0  		0.7376792169985946 		0.36828933163215233  0.07093136827172343 		Uiso   ? 		C 		0.60440
C 1.0  		0.7377880512156746 		0.8695652173913044  0.0688203156445888 		Uiso   ? 		C 		0.60440
C 1.0  		0.04961735616891324 		0.20463244675630582  0.09499736822105818 		Uiso   ? 		C 		-0.12965
C 1.0  		0.048508190420032404 		0.7051722445774856  0.09218263138487867 		Uiso   ? 		C 		-0.12965
C 1.0  		0.5503692030821256 		0.21125723819805675  0.09105673665040688 		Uiso   ? 		C 		-0.12965
C 1.0  		0.5480485138441726 		0.7063990578074395  0.09274557875211457 		Uiso   ? 		C 		-0.12965
C 1.0  		0.1597957586757225 		0.3680439689861616  0.07050915774629651 		Uiso   ? 		C 		0.60440
C 1.0  		0.1577380242012269 		0.8671115909313967  0.06924252617001574 		Uiso   ? 		C 		0.60440
C 1.0  		0.6575199574392341 		0.3643635292963  0.07064989458810549 		Uiso   ? 		C 		0.60440
C 1.0  		0.6572848241022556 		0.8636765138875259  0.06980547353725164 		Uiso   ? 		C 		0.60440
C 1.0  		0.3014037965426599 		0.1425556973206399  0.0688203156445888 		Uiso   ? 		C 		0.60440
C 1.0  		0.3001895462805941 		0.6462852095396997  0.07064989458810549 		Uiso   ? 		C 		0.60440
C 1.0  		0.7994085453153248 		0.14623613701050153  0.07093136827172343 		Uiso   ? 		C 		0.60440
C 1.0  		0.7995021054326683 		0.6504563745215428  0.07064989458810549 		Uiso   ? 		C 		0.60440
C 1.0  		0.3782415316873889 		0.22696044754146633  0.06910178932820676 		Uiso   ? 		C 		0.60440
C 1.0  		0.37759021562859935 		0.7279909706546276  0.06966473669544267 		Uiso   ? 		C 		0.60440
C 1.0  		0.8761148030783249 		0.22867798606340173  0.06980547353725164 		Uiso   ? 		C 		0.60440
C 1.0  		0.8774240420156698 		0.7272548827166553  0.06966473669544267 		Uiso   ? 		C 		0.60440
C 1.0  		0.37628367113921457 		0.14697222494847384  0.06924252617001574 		Uiso   ? 		C 		0.60440
C 1.0  		0.38119229005238436 		0.6548729021493769  0.07036842090448754 		Uiso   ? 		C 		0.60440
C 1.0  		0.8787835828762317 		0.151143389930317  0.07008694722086958 		Uiso   ? 		C 		0.60440
C 1.0  		0.8740268937063573 		0.6448130336637551  0.07064989458810549 		Uiso   ? 		C 		0.60440
C 1.0  		0.16902699682321437 		1.0086858376680734  0.06811663143554393 		Uiso   ? 		C 		-0.24399
C 1.0  		0.17155785508753763 		0.5071645892629307  0.06867957880277983 		Uiso   ? 		C 		-0.24399
C 1.0  		0.6707491630386664 		1.009176562960055  0.06994621037906061 		Uiso   ? 		C 		-0.24399
C 1.0  		0.6698144398548527 		0.506673863970949  0.06867957880277983 		Uiso   ? 		C 		-0.24399
C 1.0  		0.019999235502528467 		0.1589949946020218  0.07050915774629651 		Uiso   ? 		C 		-0.24399
C 1.0  		1.0182642195648581 		0.660025517715183  0.06924252617001574 		Uiso   ? 		C 		-0.24399
C 1.0  		0.5208320952063415 		0.16365688487584654  0.0688203156445888 		Uiso   ? 		C 		-0.24399
C 1.0  		0.5189868509041756 		0.6627245068210816  0.06924252617001574 		Uiso   ? 		C 		-0.24399
C 1.0  		0.36789353140812564 		0.35798410050053986  0.0688203156445888 		Uiso   ? 		C 		-0.24399
C 1.0  		0.36458492762223715 		0.8558249092158211  0.06966473669544267 		Uiso   ? 		C 		-0.24399
C 1.0  		0.8676792143500275 		0.35970163902247526  0.06853884196097086 		Uiso   ? 		C 		-0.24399
C 1.0  		0.8688986428739236 		0.8585238983217196  0.06755368406830803 		Uiso   ? 		C 		-0.24399
C 1.0  		0.1869331123669114 		1.007949749730101  0.08711610507975556 		Uiso   ? 		C 		0.11818
C 1.0  		0.1911398202872865 		0.5076553145549122  0.08542726297804787 		Uiso   ? 		C 		0.11818
C 1.0  		0.6885325988234825 		1.008195112376092  0.08711610507975556 		Uiso   ? 		C 		0.11818
C 1.0  		0.687361313744755 		0.5069192266169399  0.08669389455432865 		Uiso   ? 		C 		0.11818
C 1.0  		0.180951556768299 		0.20168809500441653  0.043206210435355344 		Uiso   ? 		C 		-0.13600
C 1.0  		0.18660273071164246 		0.7063990578074395  0.04616168411334383 		Uiso   ? 		C 		-0.13600
C 1.0  		0.6874975794024251 		0.20757679850819513  0.04770978937324255 		Uiso   ? 		C 		-0.13600
C 1.0  		0.6835996485447168 		0.7029639807635687  0.043628420960782274 		Uiso   ? 		C 		-0.13600
C 1.0  		0.017881297217111347 		0.1781332809893022  0.08824199981422737 		Uiso   ? 		C 		0.11819
C 1.0  		1.0185406142430824 		0.6784277161644912  0.08655315771251967 		Uiso   ? 		C 		0.11819
C 1.0  		0.5201534446820626 		0.18524879772303465  0.08373842087634016 		Uiso   ? 		C 		0.11819
C 1.0  		0.5181021866844556 		0.679654529394445  0.08683463139613762 		Uiso   ? 		C 		0.11819
C 1.0  		0.3229965216866595 		0.3459613308469919  0.09344926296115945 		Uiso   ? 		C 		-0.12965
C 1.0  		0.31524737485847587 		0.8361958975365591  0.09035305244136199 		Uiso   ? 		C 		-0.12965
C 1.0  		0.8224623087970875 		0.3444891549710472  0.09358999980296842 		Uiso   ? 		C 		-0.12965
C 1.0  		0.8243520771834043 		0.8438021395622731  0.09232336822668766 		Uiso   ? 		C 		-0.12965
C 1.0  		0.3488041194288698 		0.34105407792717635  0.08711610507975556 		Uiso   ? 		C 		0.11818
C 1.0  		0.3449631296391779 		0.8357051722445776  0.08570873666166581 		Uiso   ? 		C 		0.11818
C 1.0  		0.8489402464017184 		0.34007262734321325  0.08669389455432865 		Uiso   ? 		C 		0.11818
C 1.0  		0.8476579363028287 		0.8364412601825498  0.08373842087634016 		Uiso   ? 		C 		0.11818
C 1.0  		0.19070099440082644 		1.0086858376680734  0.05221336831112975 		Uiso   ? 		C 		0.11878
C 1.0  		0.19156480063194556 		0.5076553145549122  0.05179115778570283 		Uiso   ? 		C 		0.11878
C 1.0  		0.689987160684357 		1.0077043870841105  0.052917052520174625 		Uiso   ? 		C 		0.11878
C 1.0  		0.690704215434011 		0.5076553145549122  0.0519318946275118 		Uiso   ? 		C 		0.11878
C 1.0  		0.019221976941952892 		0.1791147315732653  0.053198526203792576 		Uiso   ? 		C 		0.11878
C 1.0  		1.0186151505567946 		0.6811267052703897  0.05179115778570283 		Uiso   ? 		C 		0.11878
C 1.0  		0.5192201500561843 		0.18083227009520073  0.05080599989304 		Uiso   ? 		C 		0.11878
C 1.0  		0.5178086837215252 		0.6816174305623712  0.05165042094389385 		Uiso   ? 		C 		0.11878
C 1.0  		0.3457371254568483 		0.33492001177740705  0.053198526203792576 		Uiso   ? 		C 		0.11878
C 1.0  		0.34840463936473043 		0.8379134360584946  0.05179115778570283 		Uiso   ? 		C 		0.11878
C 1.0  		0.8486948868839567 		0.33958190205123173  0.05108747357665795 		Uiso   ? 		C 		0.11878
C 1.0  		0.8526614135484003 		0.8413485131023654  0.049398631474950244 		Uiso   ? 		C 		0.11878
C 1.0  		0.23301940803983512 		1.009176562960055  0.022799368373053963 		Uiso   ? 		C 		-0.08216
C 1.0  		0.23358091368517597 		0.5083914024928845  0.023362315740289862 		Uiso   ? 		C 		-0.08216
C 1.0  		0.7331884043581158 		1.0086858376680734  0.024347473632952685 		Uiso   ? 		C 		-0.08216
C 1.0  		0.7335045504856952 		0.5074099519089215  0.02406599994933474 		Uiso   ? 		C 		-0.08216
C 1.0  		0.35605764528659956 		0.03852193542055158  0.04222105254269252 		Uiso   ? 		C 		-0.13600
C 1.0  		0.35261988526494187 		0.5407792717636668  0.04588021042972588 		Uiso   ? 		C 		-0.13600
C 1.0  		0.8516745375725117 		0.038276572774560806  0.04447284201163612 		Uiso   ? 		C 		-0.13600
C 1.0  		0.8497482804797448 		0.5393070958877221  0.04827273674047845 		Uiso   ? 		C 		-0.13600
C 1.0  		0.018616028546416474 		0.22082638139169694  0.02448821047476166 		Uiso   ? 		C 		-0.08216
C 1.0  		1.0197748622307587 		0.7238198056727845  0.023925263107525765 		Uiso   ? 		C 		-0.08216
C 1.0  		0.5180994109025401 		0.22278928255962316  0.023503052582098838 		Uiso   ? 		C 		-0.08216
C 1.0  		0.5177087284612487 		0.7213661792128767  0.021954947322200113 		Uiso   ? 		C 		-0.08216
C 1.0  		0.3059217976646055 		0.29566198841888314  0.02406599994933474 		Uiso   ? 		C 		-0.08216
C 1.0  		0.3057436053956436 		0.7942388850721367  0.024347473632952685 		Uiso   ? 		C 		-0.08216
C 1.0  		0.8086823430191208 		0.29737952694081854  0.022799368373053963 		Uiso   ? 		C 		-0.08216
C 1.0  		0.8050626410246062 		0.7937481597801551  0.025754842051042438 		Uiso   ? 		C 		-0.08216
C 1.0  		0.3486798004779636 		1.0101580135440182  0.08599021034528377 		Uiso   ? 		C 		0.11983
C 1.0  		0.3457187836071512 		0.5091274904308569  0.08669389455432865 		Uiso   ? 		C 		0.11983
C 1.0  		0.8492409077954715 		1.009176562960055  0.08627168402890172 		Uiso   ? 		C 		0.11983
C 1.0  		0.8488626423380454 		0.5086367651388752  0.08767905244699147 		Uiso   ? 		C 		0.11983
C 1.0  		0.2342767048191947 		0.03974874865050545  0.10822663135110183 		Uiso   ? 		C 		-0.03222
C 1.0  		0.23762983268923402 		0.5402885464716852  0.10667852609120311 		Uiso   ? 		C 		-0.03222
C 1.0  		0.7385158837571689 		0.03974874865050545  0.10738221030024798 		Uiso   ? 		C 		-0.03222
C 1.0  		0.7345874046999876 		0.5410246344096575  0.10808589450929286 		Uiso   ? 		C 		-0.03222
C 1.0  		0.016706051800399135 		0.3398272646972225  0.08838273665603634 		Uiso   ? 		C 		0.11983
C 1.0  		1.0179371006524944 		0.8391402492884483  0.08753831560518249 		Uiso   ? 		C 		0.11983
C 1.0  		0.5206822759749157 		0.33590146236137014  0.08570873666166581 		Uiso   ? 		C 		0.11983
C 1.0  		0.520620286987946 		0.8393856119344392  0.08599021034528377 		Uiso   ? 		C 		0.11983
C 1.0  		0.18641007559701273 		0.17690646775934832  0.08697536823794659 		Uiso   ? 		C 		0.11983
C 1.0  		0.18995162191679724 		0.678673078810482  0.08880494718146327 		Uiso   ? 		C 		0.11983
C 1.0  		0.6848791505366573 		0.17641574246736677  0.0892271577068902 		Uiso   ? 		C 		0.11983
C 1.0  		0.6918052655139779 		0.6811267052703897  0.08570873666166581 		Uiso   ? 		C 		0.11983
C 1.0  		0.34943115313098516 		1.0086858376680734  0.05066526305123102 		Uiso   ? 		C 		0.11921
C 1.0  		0.34973202515882795 		0.5103543036608107  0.05207263146932078 		Uiso   ? 		C 		0.11921
C 1.0  		0.8479900384840784 		1.007949749730101  0.0519318946275118 		Uiso   ? 		C 		0.11921
C 1.0  		0.8472284596502735 		0.5096182157228384  0.05347999988741053 		Uiso   ? 		C 		0.11921
C 1.0  		0.01823282882902652 		0.3356560997153794  0.053620736729219506 		Uiso   ? 		C 		0.11921
C 1.0  		1.0189338128232777 		0.8381587987044853  0.05235410515293873 		Uiso   ? 		C 		0.11921
C 1.0  		0.5225641393264087 		0.3417901658651487  0.05080599989304 		Uiso   ? 		C 		0.11921
C 1.0  		0.5200309599161261 		0.8369319854745314  0.05221336831112975 		Uiso   ? 		C 		0.11921
C 1.0  		0.18726003628633087 		0.17690646775934832  0.0513689472602759 		Uiso   ? 		C 		0.11921
C 1.0  		0.1938269096098568 		0.6825988811463344  0.05446515778007335 		Uiso   ? 		C 		0.11921
C 1.0  		0.6921630786098373 		0.18205908332515458  0.05460589462188233 		Uiso   ? 		C 		0.11921
C 1.0  		0.6884776379244584 		0.6774462655805281  0.05080599989304 		Uiso   ? 		C 		0.11921
C 1.0  		0.3697820662294514 		1.0111394641279814  0.06910178932820676 		Uiso   ? 		C 		-0.24357
C 1.0  		0.3677696180842537 		0.5115811168907646  0.06980547353725164 		Uiso   ? 		C 		-0.24357
C 1.0  		0.8682423435462481 		1.0089312003140642  0.06910178932820676 		Uiso   ? 		C 		-0.24357
C 1.0  		0.8676275161939084 		0.5096182157228384  0.06980547353725164 		Uiso   ? 		C 		-0.24357
C 1.0  		0.0164259887522355 		0.3562665619786044  0.06994621037906061 		Uiso   ? 		C 		-0.24357
C 1.0  		1.017453345054849 		0.8572970850917657  0.06910178932820676 		Uiso   ? 		C 		-0.24357
C 1.0  		0.5238613178980005 		0.35798410050053986  0.06980547353725164 		Uiso   ? 		C 		-0.24357
C 1.0  		0.5210193614250511 		0.858033173029738  0.0688203156445888 		Uiso   ? 		C 		-0.24357
C 1.0  		0.16770397699413594 		0.15776818137206794  0.06896105248639778 		Uiso   ? 		C 		-0.24357
C 1.0  		0.17368152324584185 		0.6610069682991462  0.07107210511353242 		Uiso   ? 		C 		-0.24357
C 1.0  		0.6693122610735549 		0.15973108253999413  0.06994621037906061 		Uiso   ? 		C 		-0.24357
C 1.0  		0.6709325982195258 		0.6597801550691923  0.06952399985363368 		Uiso   ? 		C 		-0.24357
C 1.0  		0.21456386285769574 		0.17371675336146825  0.045176526220680996 		Uiso   ? 		C 		-0.13600
C 1.0  		0.22385376259918482 		0.6835803317302974  0.04996157884218615 		Uiso   ? 		C 		-0.13600
C 1.0  		0.7190988659045594 		0.1781332809893022  0.04897642094952332 		Uiso   ? 		C 		-0.13600
C 1.0  		0.7119390461481959 		0.6708214741387771  0.04278399990992842 		Uiso   ? 		C 		-0.13600
C 1.0  		0.30845341921681824 		1.009176562960055  0.022377157847627036 		Uiso   ? 		C 		-0.08298
C 1.0  		0.3083533826225861 		0.5096182157228384  0.02294010521486294 		Uiso   ? 		C 		-0.08298
C 1.0  		0.8056387554996376 		1.0069682991461382  0.022377157847627036 		Uiso   ? 		C 		-0.08298
C 1.0  		0.8058498171140318 		0.5088821277848661  0.024628947316570636 		Uiso   ? 		C 		-0.08298
C 1.0  		0.019991038499659275 		0.29369908725095695  0.024347473632952685 		Uiso   ? 		C 		-0.08299
C 1.0  		1.0190490421832905 		0.7954656983020906  0.02448821047476166 		Uiso   ? 		C 		-0.08299
C 1.0  		0.5214766428201973 		0.29541662577289235  0.023362315740289862 		Uiso   ? 		C 		-0.08299
C 1.0  		0.5189369869330263 		0.7952203356560998  0.02223642100581806 		Uiso   ? 		C 		-0.08299
C 1.0  		0.23126174998025928 		0.22156246932966928  0.023503052582098838 		Uiso   ? 		C 		-0.08298
C 1.0  		0.2309608779524165 		0.7198940033369321  0.023080842056671914 		Uiso   ? 		C 		-0.08298
C 1.0  		0.7341121057482233 		0.22303464520561392  0.02603631573466039 		Uiso   ? 		C 		-0.08298
C 1.0  		0.7305493448217252 		0.7186671901069781  0.021814210480391137 		Uiso   ? 		C 		-0.08298
C 1.0  		0.3346561143742606 		0.2932083619589754  0.10850810503471979 		Uiso   ? 		C 		-0.03222
C 1.0  		0.3327451313812303 		0.7912945333202475  0.10822663135110183 		Uiso   ? 		C 		-0.03222
C 1.0  		0.832658542000966 		0.2905093728530769  0.10766368398386593 		Uiso   ? 		C 		-0.03222
C 1.0  		0.8336983496979649 		0.7898223574443027  0.10597484188215824 		Uiso   ? 		C 		-0.03222
C 1.0  		0.18743486883728677 		0.4777210717440377  0.09232336822668766 		Uiso   ? 		C 		-0.12965
C 1.0  		0.183138350503463 		0.9782608695652175  0.09288631559392355 		Uiso   ? 		C 		-0.12965
C 1.0  		0.6812291599856818 		0.4772303464520562  0.09499736822105818 		Uiso   ? 		C 		-0.12965
C 1.0  		0.6842471179245107 		0.9775247816272451  0.09302705243573253 		Uiso   ? 		C 		-0.12965
C 1.0  		0.48951319289833023 		0.1830405339091177  0.08993084191593508 		Uiso   ? 		C 		-0.12965
C 1.0  		0.48821328755374477 		0.6759740897045834  0.09330852611935048 		Uiso   ? 		C 		-0.12965
C 1.0  		0.9884377963821067 		0.17666110511335756  0.09415294717020432 		Uiso   ? 		C 		-0.12965
C 1.0  		0.9885859764215073 		0.6737658258906665  0.09387147348658638 		Uiso   ? 		C 		-0.12965
C 1.0  		0.18612705845787741 		0.4772303464520562  0.0440506314862092 		Uiso   ? 		C 		-0.13077
C 1.0  		0.1861132129160764 		0.9782608695652175  0.045176526220680996 		Uiso   ? 		C 		-0.13077
C 1.0  		0.685021113742181 		0.4767396211600746  0.04489505253706305 		Uiso   ? 		C 		-0.13077
C 1.0  		0.6872548496825562 		0.9780155069192268  0.047006105164197676 		Uiso   ? 		C 		-0.13077
C 1.0  		0.48861924409477264 		0.17445284129944058  0.04278399990992842 		Uiso   ? 		C 		-0.13077
C 1.0  		0.4875758170367562 		0.6759740897045834  0.045035789378872024 		Uiso   ? 		C 		-0.13077
C 1.0  		0.9889197177947823 		0.17592501717538522  0.047006105164197676 		Uiso   ? 		C 		-0.13077
C 1.0  		0.9894294606339369 		0.6784277161644912  0.04644315779696177 		Uiso   ? 		C 		-0.13077
C 1.0  		0.35209486832605075 		0.0412209245264501  0.09176042085945176 		Uiso   ? 		C 		-0.13444
C 1.0  		0.3533383685725312 		0.5388163705957406  0.09527884190467613 		Uiso   ? 		C 		-0.13444
C 1.0  		0.8541762761952973 		0.04073019923446855  0.09274557875211457 		Uiso   ? 		C 		-0.13444
C 1.0  		0.853932345235471 		0.538325645303759  0.09556031558829409 		Uiso   ? 		C 		-0.13444
C 1.0  		0.20575716710279493 		0.47526744528413  0.10695999977482105 		Uiso   ? 		C 		-0.03222
C 1.0  		0.20291521062984563 		0.9753165178133282  0.10766368398386593 		Uiso   ? 		C 		-0.03222
C 1.0  		0.7023795691823381 		0.4757581705761115  0.10808589450929286 		Uiso   ? 		C 		-0.03222
C 1.0  		0.7041137884643419 		0.9743350672293651  0.10639705240758515 		Uiso   ? 		C 		-0.03222
C 1.0  		0.48691980967712606 		0.1982530179605457  0.10625631556577618 		Uiso   ? 		C 		-0.03223
C 1.0  		0.48655319895841886 		0.6956031013838454  0.10822663135110183 		Uiso   ? 		C 		-0.03223
C 1.0  		0.9869091851685096 		0.1982530179605457  0.10639705240758515 		Uiso   ? 		C 		-0.03223
C 1.0  		0.9872939271028239 		0.6941309255079008  0.10864884187652876 		Uiso   ? 		C 		-0.03223
C 1.0  		0.20812742834385192 		0.4757581705761115  0.03138431572340144 		Uiso   ? 		C 		-0.02997
C 1.0  		0.2066502233183285 		0.9755618804593189  0.030399157830738616 		Uiso   ? 		C 		-0.02997
C 1.0  		0.7062942026977184 		0.47551280793012074  0.03180652624882837 		Uiso   ? 		C 		-0.02997
C 1.0  		0.706639598809712 		0.9755618804593189  0.032369473616064265 		Uiso   ? 		C 		-0.02997
C 1.0  		0.48541478322512355 		0.19481794091667487  0.029836210463502714 		Uiso   ? 		C 		-0.02998
C 1.0  		0.4845005124028764 		0.6919226616939838  0.028991789412648863 		Uiso   ? 		C 		-0.02998
C 1.0  		0.9859189494746149 		0.1945725782706841  0.032650947299682216 		Uiso   ? 		C 		-0.02998
C 1.0  		0.9870332934853259 		0.6965845519678084  0.03152505256521042 		Uiso   ? 		C 		-0.02998
C 1.0  		0.23795477643966112 		0.04073019923446855  0.03138431572340144 		Uiso   ? 		C 		-0.02997
C 1.0  		0.24127503496426828 		0.5407792717636668  0.032369473616064265 		Uiso   ? 		C 		-0.02997
C 1.0  		0.7387941126203628 		0.04073019923446855  0.032369473616064265 		Uiso   ? 		C 		-0.02997
C 1.0  		0.7379543781118278 		0.540533909117676  0.03152505256521042 		Uiso   ? 		C 		-0.02997
C 1.0  		0.3196037560262543 		0.4777210717440377  0.09302705243573253 		Uiso   ? 		C 		-0.13444
C 1.0  		0.3249109624155394 		0.9804691333791344  0.09401221032839535 		Uiso   ? 		C 		-0.13444
C 1.0  		0.8200269094851447 		0.4794386102659731  0.09288631559392355 		Uiso   ? 		C 		-0.13444
C 1.0  		0.8257415009733932 		0.978751594857199  0.09556031558829409 		Uiso   ? 		C 		-0.13444
C 1.0  		0.49003506075330516 		0.3145549121601728  0.09471589453744023 		Uiso   ? 		C 		-0.13444
C 1.0  		0.4891624568993381 		0.8138678967513987  0.09302705243573253 		Uiso   ? 		C 		-0.13444
C 1.0  		0.9878425934533769 		0.3152910000981451  0.095982526113721 		Uiso   ? 		C 		-0.13444
C 1.0  		0.987706068152695 		0.8160761605653156  0.0965454734809569 		Uiso   ? 		C 		-0.13444
C 1.0  		0.3269270299217549 		0.4791932476199824  0.043769157802591246 		Uiso   ? 		C 		-0.13600
C 1.0  		0.3221967336204241 		0.9780155069192268  0.0457394735879169 		Uiso   ? 		C 		-0.13600
C 1.0  		0.8218735823452461 		0.47845715968201  0.046724631480579724 		Uiso   ? 		C 		-0.13600
C 1.0  		0.8213361484224895 		0.9780155069192268  0.04602094727153485 		Uiso   ? 		C 		-0.13600
C 1.0  		0.49292011275246983 		0.3148002748061635  0.0446135788534451 		Uiso   ? 		C 		-0.13600
C 1.0  		0.4903059205515866 		0.8119049955834725  0.045317263062489975 		Uiso   ? 		C 		-0.13600
C 1.0  		0.988363860688373 		0.31038374717832956  0.0457394735879169 		Uiso   ? 		C 		-0.13600
C 1.0  		0.9887421261457989 		0.8109235449995094  0.04602094727153485 		Uiso   ? 		C 		-0.13600
C 1.0  		0.29854963371993504 		0.4742859947001669  0.1083673681929108 		Uiso   ? 		C 		-0.03230
C 1.0  		0.30183054642222146 		0.9785062322112082  0.10724147345843901 		Uiso   ? 		C 		-0.03230
C 1.0  		0.8010976889021207 		0.4760035332221023  0.10878957871833773 		Uiso   ? 		C 		-0.03230
C 1.0  		0.8020893531539509 		0.9777701442732359  0.10794515766748389 		Uiso   ? 		C 		-0.03230
C 1.0  		0.4877300512421229 		0.2912454607910492  0.1083673681929108 		Uiso   ? 		C 		-0.03230
C 1.0  		0.4864894081115132 		0.7898223574443027  0.10681926293301208 		Uiso   ? 		C 		-0.03230
C 1.0  		0.9861750544591832 		0.2919815487290215  0.10935252608557364 		Uiso   ? 		C 		-0.03230
C 1.0  		0.9857931696407396 		0.7922759839042105  0.10907105240195568 		Uiso   ? 		C 		-0.03230
C 1.0  		0.30296378389368656 		0.4767396211600746  0.029836210463502714 		Uiso   ? 		C 		-0.03035
C 1.0  		0.3017888794539413 		0.9762979683972913  0.03138431572340144 		Uiso   ? 		C 		-0.03035
C 1.0  		0.801130558247553 		0.47649425851408383  0.03194726309063734 		Uiso   ? 		C 		-0.03035
C 1.0  		0.7993422550134035 		0.9748257925213466  0.031243578881592467 		Uiso   ? 		C 		-0.03035
C 1.0  		0.4891846131029973 		0.29075473549906766  0.03152505256521042 		Uiso   ? 		C 		-0.03035
C 1.0  		0.48654634917952977 		0.7890862695063304  0.031243578881592467 		Uiso   ? 		C 		-0.03035
C 1.0  		0.9871958383525508 		0.28977328491510457  0.03082136835616554 		Uiso   ? 		C 		-0.03035
C 1.0  		0.9868708946021236 		0.7893316321523212  0.03152505256521042 		Uiso   ? 		C 		-0.03035
C 1.0  		0.2100270329250633 		0.17101776425556972  0.09584178927191203 		Uiso   ? 		C 		-0.13444
C 1.0  		0.21643835714427623 		0.6759740897045834  0.09415294717020432 		Uiso   ? 		C 		-0.13444
C 1.0  		0.7063295391731325 		0.16831877514967125  0.09753063137361971 		Uiso   ? 		C 		-0.13444
C 1.0  		0.7168527129803188 		0.6759740897045834  0.09274557875211457 		Uiso   ? 		C 		-0.13444
C 1.0  		0.19898522168077368 		0.4391991363234862  0.025051157841997563 		Uiso   ? 		C 		0.65551
C 1.0  		0.19817835651767096 		0.9394935714986752  0.024347473632952685 		Uiso   ? 		C 		0.65551
C 1.0  		0.6984598064140495 		0.4394444989694769  0.025473368367424486 		Uiso   ? 		C 		0.65551
C 1.0  		0.6960340326629113 		0.9377760329767397  0.025473368367424486 		Uiso   ? 		C 		0.65551
C 1.0  		0.44910071433339893 		0.18721169889096087  0.024347473632952685 		Uiso   ? 		C 		0.65552
C 1.0  		0.4481295024431353 		0.685052507606242  0.02378452626571679 		Uiso   ? 		C 		0.65552
C 1.0  		0.9499312528912526 		0.18549416036902544  0.025051157841997563 		Uiso   ? 		C 		0.65552
C 1.0  		0.9502285055580778 		0.6879968593581314  0.025895578892851413 		Uiso   ? 		C 		0.65552
C 1.0  		0.3308618394718019 		0.2873196584551968  0.032650947299682216 		Uiso   ? 		C 		-0.02997
C 1.0  		0.3336191637931327 		0.7900677200902936  0.03194726309063734 		Uiso   ? 		C 		-0.02997
C 1.0  		0.835429711864098 		0.29222691137501233  0.03138431572340144 		Uiso   ? 		C 		-0.02997
C 1.0  		0.833150689594425 		0.789576994798312  0.03110284203978349 		Uiso   ? 		C 		-0.02997
C 1.0  		0.27393731144508116 		0.4399352242614585  0.02476968415837961 		Uiso   ? 		C 		0.65728
C 1.0  		0.27394753762586443 		0.9397389341446659  0.024628947316570636 		Uiso   ? 		C 		0.65728
C 1.0  		0.7742289875222429 		0.4396898616154677  0.026177052576469365 		Uiso   ? 		C 		0.65728
C 1.0  		0.7715907235987752 		0.9380213956227305  0.02519189468380654 		Uiso   ? 		C 		0.65728
C 1.0  		0.45127754153079125 		0.2625380312101286  0.02533263152561551 		Uiso   ? 		C 		0.65729
C 1.0  		0.45031512726337547 		0.7620963784473452  0.02519189468380654 		Uiso   ? 		C 		0.65729
C 1.0  		0.9510127598815651 		0.2603297673962116  0.02519189468380654 		Uiso   ? 		C 		0.65729
C 1.0  		0.9506966137539858 		0.7616056531553637  0.024628947316570636 		Uiso   ? 		C 		0.65729
C 1.0  		0.05130896688569126 		0.22671508489547554  0.03194726309063734 		Uiso   ? 		C 		-0.02998
C 1.0  		0.051785840379413695 		0.7287270585926  0.03180652624882837 		Uiso   ? 		C 		-0.02998
C 1.0  		0.5507025388283663 		0.22892334870939252  0.03138431572340144 		Uiso   ? 		C 		-0.02998
C 1.0  		0.5506470263182852 		0.7277456080086369  0.030539894672547592 		Uiso   ? 		C 		-0.02998
C 1.0  		0.05029013083628241 		0.32412405535381295  0.10822663135110183 		Uiso   ? 		C 		-0.03230
C 1.0  		0.05042303677594656 		0.8241731278830111  0.10864884187652876 		Uiso   ? 		C 		-0.03230
C 1.0  		0.5529016035633731 		0.32044361566395135  0.10667852609120311 		Uiso   ? 		C 		-0.03230
C 1.0  		0.5505174967805151 		0.8209834134851312  0.10667852609120311 		Uiso   ? 		C 		-0.03230
C 1.0  		0.3546547492568104 		0.3157817253901266  0.09499736822105818 		Uiso   ? 		C 		-0.12965
C 1.0  		0.3524085963325696 		0.8136225341054079  0.09457515769563125 		Uiso   ? 		C 		-0.12965
C 1.0  		0.850278118019611 		0.31087447247031114  0.09246410506849663 		Uiso   ? 		C 		-0.12965
C 1.0  		0.8539335464754284 		0.8111689076455001  0.0909159998085979 		Uiso   ? 		C 		-0.12965
C 1.0  		0.299254076492779 		0.32142506624791445  0.03194726309063734 		Uiso   ? 		C 		-0.02997
C 1.0  		0.29938698243244316 		0.8214741387771126  0.03110284203978349 		Uiso   ? 		C 		-0.02997
C 1.0  		0.799300393052179 		0.3206889783099421  0.03138431572340144 		Uiso   ? 		C 		-0.02997
C 1.0  		0.7991879394740815 		0.8202473255471587  0.03208799993244632 		Uiso   ? 		C 		-0.02997
C 1.0  		0.05137470557655563 		0.22769653547943863  0.10907105240195568 		Uiso   ? 		C 		-0.03222
C 1.0  		0.051441872825355395 		0.7267641574246738  0.10724147345843901 		Uiso   ? 		C 		-0.03222
C 1.0  		0.5512589965547541 		0.23088624987731868  0.10695999977482105 		Uiso   ? 		C 		-0.03222
C 1.0  		0.5510632090400964 		0.7260280694867014  0.10822663135110183 		Uiso   ? 		C 		-0.03222
C 1.0  		0.30021144284124157 		0.3246147806457945  0.10695999977482105 		Uiso   ? 		C 		-0.03222
C 1.0  		0.2971963420182835 		0.8204926881931495  0.10681926293301208 		Uiso   ? 		C 		-0.03222
C 1.0  		0.8009280992630623 		0.32436941799980373  0.10822663135110183 		Uiso   ? 		C 		-0.03222
C 1.0  		0.8016327370288507 		0.8234370399450388  0.10681926293301208 		Uiso   ? 		C 		-0.03222
C 1.0  		0.2714065178308253 		0.088085189910688  -0.04165810517545662 		Uiso   ? 		C 		0.57023
C 1.0  		0.2677386723911422 		0.5869074492099323  -0.04137663149183867 		Uiso   ? 		C 		0.57023
C 1.0  		0.7736675465269692 		0.0871037393267249  -0.04053221044098482 		Uiso   ? 		C 		0.57023
C 1.0  		0.7736754515617932 		0.5805280204141722  -0.03926557886470405 		Uiso   ? 		C 		0.57023
C 1.0  		0.4404520348127931 		0.18181372067916382  -0.04264326306811945 		Uiso   ? 		C 		0.57022
C 1.0  		0.43715222864975267 		0.6813720679163805  -0.04306547359354637 		Uiso   ? 		C 		0.57022
C 1.0  		0.9431820319678357 		0.18941996270487782  -0.04137663149183867 		Uiso   ? 		C 		0.57022
C 1.0  		0.9450958720767368 		0.6875061340661498  -0.039969263073748915 		Uiso   ? 		C 		0.57022
C 1.0  		0.34377278843178555 		0.2595936794582393  -0.04137663149183867 		Uiso   ? 		C 		0.57023
C 1.0  		0.3454653407455093 		0.7559623122975758  -0.040109999915557894 		Uiso   ? 		C 		0.57023
C 1.0  		0.8429691443018674 		0.25885759152026694  -0.040672947282793796 		Uiso   ? 		C 		0.57023
C 1.0  		0.8374194355106914 		0.7517911473157327  -0.04095442096641174 		Uiso   ? 		C 		0.57023
C 1.0  		0.2644072950977278 		0.07876140936303858  0.024347473632952685 		Uiso   ? 		C 		0.65552
C 1.0  		0.267563206895174 		0.5763568554323291  0.02476968415837961 		Uiso   ? 		C 		0.65552
C 1.0  		0.7673057943108603 		0.07777995877907548  0.025473368367424486 		Uiso   ? 		C 		0.65552
C 1.0  		0.7666785499746551 		0.577583668662283  0.026458526260087312 		Uiso   ? 		C 		0.65552
C 1.0  		0.21751405292774617 		0.03852193542055158  0.0463024209551528 		Uiso   ? 		C 		-0.13077
C 1.0  		0.21870940972905795 		0.5385710079497498  0.045598736746107926 		Uiso   ? 		C 		-0.13077
C 1.0  		0.7155012064547152 		0.038767298066542354  0.0457394735879169 		Uiso   ? 		C 		-0.13077
C 1.0  		0.7142934326695378 		0.5378349200117775  0.0440506314862092 		Uiso   ? 		C 		-0.13077
C 1.0  		0.33952298498519495 		0.2595936794582393  0.025614105209233462 		Uiso   ? 		C 		0.65552
C 1.0  		0.3414544203397919 		0.7611149278633821  0.025895578892851413 		Uiso   ? 		C 		0.65552
C 1.0  		0.8418914193404834 		0.2618019432721563  0.026739999943705264 		Uiso   ? 		C 		0.65552
C 1.0  		0.8388851161403732 		0.7593973893414467  0.026458526260087312 		Uiso   ? 		C 		0.65552
C 1.0  		0.08809664652823329 		0.2556678771223869  0.026177052576469365 		Uiso   ? 		C 		0.65552
C 1.0  		0.08902257208919906 		0.7564530375895575  0.025895578892851413 		Uiso   ? 		C 		0.65552
C 1.0  		0.5873499434663316 		0.25419570124644225  0.02378452626571679 		Uiso   ? 		C 		0.65552
C 1.0  		0.5875573857197081 		0.756943762881539  0.023643789423907813 		Uiso   ? 		C 		0.65552
C 1.0  		0.20225800203025818 		0.22475218372754935  0.10794515766748389 		Uiso   ? 		C 		-0.03230
C 1.0  		0.20611064655866881 		0.7279909706546276  0.10794515766748389 		Uiso   ? 		C 		-0.03230
C 1.0  		0.7023700572805225 		0.2249975463735401  0.10977473661100055 		Uiso   ? 		C 		-0.03230
C 1.0  		0.7082337213961956 		0.729708509176563  0.10569336819854028 		Uiso   ? 		C 		-0.03230
C 1.0  		0.27237755141203257 		0.33099420944155467  0.02519189468380654 		Uiso   ? 		C 		0.65552
C 1.0  		0.2704096273509857 		0.829816468740799  0.024347473632952685 		Uiso   ? 		C 		0.65552
C 1.0  		0.7699790704166634 		0.32706840710570223  0.025895578892851413 		Uiso   ? 		C 		0.65552
C 1.0  		0.76938469542589 		0.8273628422808912  0.025614105209233462 		Uiso   ? 		C 		0.65552
C 1.0  		0.09477597342985675 		0.2618019432721563  -0.039969263073748915 		Uiso   ? 		C 		0.57021
C 1.0  		0.09337330471804567 		0.7643046422612623  -0.039969263073748915 		Uiso   ? 		C 		0.57021
C 1.0  		0.5996044794396509 		0.264255569732064  -0.043487684118973295 		Uiso   ? 		C 		0.57021
C 1.0  		0.5965083658260919 		0.7620963784473452  -0.04250252622631047 		Uiso   ? 		C 		0.57021
C 1.0  		0.1952062208780513 		0.43036608106781826  -0.04151736833364764 		Uiso   ? 		C 		0.57024
C 1.0  		0.20088146654397904 		0.9338502306408873  -0.04222105254269252 		Uiso   ? 		C 		0.57024
C 1.0  		0.6955636356460774 		0.43110216900579057  -0.04053221044098482 		Uiso   ? 		C 		0.57024
C 1.0  		0.6988116790029316 		0.9348316812248504  -0.04053221044098482 		Uiso   ? 		C 		0.57024
C 1.0  		0.26774443458906305 		0.33320247325547164  -0.04264326306811945 		Uiso   ? 		C 		0.57024
C 1.0  		0.2614193014222811 		0.8288350181568359  -0.04165810517545662 		Uiso   ? 		C 		0.57024
C 1.0  		0.7725729405988572 		0.3356560997153794  -0.03828042097204122 		Uiso   ? 		C 		0.57024
C 1.0  		0.7657001473285352 		0.8310432819707528  -0.041798842017265594 		Uiso   ? 		C 		0.57024
C 1.0  		0.05202939803723933 		0.31995289037196983  0.03335463150872709 		Uiso   ? 		C 		-0.03035
C 1.0  		0.052392389394928796 		0.8234370399450388  0.03138431572340144 		Uiso   ? 		C 		-0.03035
C 1.0  		0.553188630049415 		0.32314260476984985  0.03025842098892964 		Uiso   ? 		C 		-0.03035
C 1.0  		0.5525285163677774 		0.8224555893610757  0.02997694730531169 		Uiso   ? 		C 		-0.03035
C 1.0  		0.20421208054950402 		0.22696044754146633  0.031243578881592467 		Uiso   ? 		C 		-0.03035
C 1.0  		0.20422230673028727 		0.7267641574246738  0.03082136835616554 		Uiso   ? 		C 		-0.03035
C 1.0  		0.7078883252842018 		0.22965943664736485  0.033776842034154014 		Uiso   ? 		C 		-0.03035
C 1.0  		0.7037779042541639 		0.7250466189027384  0.028991789412648863 		Uiso   ? 		C 		-0.03035
C 1.0  		0.049952526100123615 		0.2048778094022966  0.0457394735879169 		Uiso   ? 		C 		-0.13077
C 1.0  		0.04875354993779413 		0.7056629698694671  0.04545799990429895 		Uiso   ? 		C 		-0.13077
C 1.0  		0.5494687778016795 		0.20733143586220434  0.045317263062489975 		Uiso   ? 		C 		-0.13077
C 1.0  		0.5488984745334907 		0.7063990578074395  0.04447284201163612 		Uiso   ? 		C 		-0.13077
C 1.0  		0.33412301409148937 		0.040975561880459324  0.029836210463502714 		Uiso   ? 		C 		-0.03035
C 1.0  		0.3329569072745921 		0.5422514476396114  0.03180652624882837 		Uiso   ? 		C 		-0.03035
C 1.0  		0.8311615988928438 		0.03974874865050545  0.03082136835616554 		Uiso   ? 		C 		-0.03035
C 1.0  		0.8319407729723444 		0.541515359701639  0.032510210457873244 		Uiso   ? 		C 		-0.03035
C 1.0  		0.23609807239172081 		0.19383649033271177  0.030399157830738616 		Uiso   ? 		C 		-0.03035
C 1.0  		0.24199460585282595 		0.6990381784277163  0.03349536835053606 		Uiso   ? 		C 		-0.03035
C 1.0  		0.7403219772299585 		0.19678084208460106  0.03433978940138992 		Uiso   ? 		C 		-0.03035
C 1.0  		0.7352389157517215 		0.6919226616939838  0.029836210463502714 		Uiso   ? 		C 		-0.03035
C 1.0  		0.33304528913010534 		0.043919913632348616  0.10625631556577618 		Uiso   ? 		C 		-0.03230
C 1.0  		0.33252312930708516 		0.540533909117676  0.10850810503471979 		Uiso   ? 		C 		-0.03230
C 1.0  		0.8330587363440731 		0.04269310040239474  0.10681926293301208 		Uiso   ? 		C 		-0.03230
C 1.0  		0.8330272955565764 		0.5402885464716852  0.10907105240195568 		Uiso   ? 		C 		-0.03230
C 1.0  		0.047396768175259424 		0.3459613308469919  0.09570105243010306 		Uiso   ? 		C 		-0.13444
C 1.0  		0.04886155621691729 		0.8452743154382177  0.09527884190467613 		Uiso   ? 		C 		-0.13444
C 1.0  		0.550463769446482 		0.33639218765335166  0.09063452612497995 		Uiso   ? 		C 		-0.13444
C 1.0  		0.5498388462562361 		0.8425753263323192  0.0931677892775415 		Uiso   ? 		C 		-0.13444
C 1.0  		0.23664573249526072 		0.19408185297870253  0.10752294714205696 		Uiso   ? 		C 		-0.03230
C 1.0  		0.2379068279874369 		0.6951123760918638  0.1083673681929108 		Uiso   ? 		C 		-0.03230
C 1.0  		0.7323677092943579 		0.1906467759348317  0.11005621029461851 		Uiso   ? 		C 		-0.03230
C 1.0  		0.7386234844092576 		0.694867013445873  0.10681926293301208 		Uiso   ? 		C 		-0.03230
C 1.0  		0.2624517233704793 		0.43183825694376293  -0.04264326306811945 		Uiso   ? 		C 		0.57047
C 1.0  		0.2666307402072524 		0.9336048679948966  -0.04193957885907457 		Uiso   ? 		C 		0.57047
C 1.0  		0.7682769415510566 		0.43331043281970755  -0.040109999915557894 		Uiso   ? 		C 		0.57047
C 1.0  		0.7665872463532037 		0.9331141427029149  -0.04193957885907457 		Uiso   ? 		C 		0.57047
C 1.0  		0.09373025755091456 		0.33025812150358236  -0.041798842017265594 		Uiso   ? 		C 		0.57046
C 1.0  		0.09558068011491072 		0.8337422710766514  -0.043628420960782274 		Uiso   ? 		C 		0.57046
C 1.0  		0.5990823519416643 		0.33418392383943474  -0.04278399990992842 		Uiso   ? 		C 		0.57046
C 1.0  		0.5975394082252765 		0.833006183138679  -0.04292473675173739 		Uiso   ? 		C 		0.57046
C 1.0  		0.1952838249417243 		0.2618019432721563  -0.042080315700883546 		Uiso   ? 		C 		0.57047
C 1.0  		0.19406077705681052 		0.7638139169692807  -0.04433210516982715 		Uiso   ? 		C 		0.57047
C 1.0  		0.6982392652228734 		0.2600844047502209  -0.04053221044098482 		Uiso   ? 		C 		0.57047
C 1.0  		0.6966898450295971 		0.76356855432329  -0.04278399990992842 		Uiso   ? 		C 		0.57047
C 1.0  		0.08808283331146591 		0.3300127588575915  0.026177052576469365 		Uiso   ? 		C 		0.65729
C 1.0  		0.08788936694276756 		0.8315340072627343  0.024910421000188587 		Uiso   ? 		C 		0.65729
C 1.0  		0.5894040909048431 		0.32927667091961926  0.024910421000188587 		Uiso   ? 		C 		0.65729
C 1.0  		0.5879268858793196 		0.8290803808028266  0.02476968415837961 		Uiso   ? 		C 		0.65729
C 1.0  		0.19856746441700446 		0.25689469035234075  0.025754842051042438 		Uiso   ? 		C 		0.65728
C 1.0  		0.19494776242248993 		0.7532633231916773  0.023643789423907813 		Uiso   ? 		C 		0.65728
C 1.0  		0.6972731012515628 		0.25517715183040535  0.026317789418278337 		Uiso   ? 		C 		0.65728
C 1.0  		0.6953949876039647 		0.7537540484836589  0.02294010521486294 		Uiso   ? 		C 		0.65728
C 1.0  		0.3403801687554029 		0.07728923348709393  0.024910421000188587 		Uiso   ? 		C 		0.65729
C 1.0  		0.33860066314410137 		0.5773383060162922  0.026599263101896288 		Uiso   ? 		C 		0.65729
C 1.0  		0.8401241847290247 		0.07679850819511239  0.025051157841997563 		Uiso   ? 		C 		0.65729
C 1.0  		0.8409602998765418 		0.5778290313082737  0.025614105209233462 		Uiso   ? 		C 		0.65729
C 1.0  		0.32139288719836046 		0.34105407792717635  0.045598736746107926 		Uiso   ? 		C 		-0.13077
C 1.0  		0.3202179827586153 		0.840612425164393  0.04545799990429895 		Uiso   ? 		C 		-0.13077
C 1.0  		0.8214151320351761 		0.3415448032191579  0.0446135788534451 		Uiso   ? 		C 		-0.13077
C 1.0  		0.8256927569082458 		0.8447835901462363  0.04264326306811945 		Uiso   ? 		C 		-0.13077
C 1.0  		0.26702950599242403 		0.18770242418294242  0.025614105209233462 		Uiso   ? 		C 		0.65729
C 1.0  		0.26801237262140637 		0.6877514967121405  0.026458526260087312 		Uiso   ? 		C 		0.65729
C 1.0  		0.7686618617944273 		0.18843851212091473  0.026599263101896288 		Uiso   ? 		C 		0.65729
C 1.0  		0.7642820095240435 		0.6845617823142606  0.024910421000188587 		Uiso   ? 		C 		0.65729
C 1.0  		0.1822024260796919 		0.20291490823437042  0.09373073664477741 		Uiso   ? 		C 		-0.13444
C 1.0  		0.18437922095205056 		0.7049268819314949  0.09499736822105818 		Uiso   ? 		C 		-0.13444
C 1.0  		0.6821348605030588 		0.20365099617234272  0.09527884190467613 		Uiso   ? 		C 		-0.13444
C 1.0  		0.6894290147570221 		0.709098046913338  0.09119747349221585 		Uiso   ? 		C 		-0.13444
C 1.0  		0.4434218816314871 		0.25787614093630384  -0.041798842017265594 		Uiso   ? 		C 		0.57045
C 1.0  		0.443210820017093 		0.7559623122975758  -0.03968778939013096 		Uiso   ? 		C 		0.57045
C 1.0  		0.9432645056414054 		0.25885759152026694  -0.040672947282793796 		Uiso   ? 		C 		0.57045
C 1.0  		0.9405517054042256 		0.7544901364216313  -0.0423617893845015 		Uiso   ? 		C 		0.57045
C 1.0  		0.33546234659235097 		0.08317793699087252  -0.04151736833364764 		Uiso   ? 		C 		0.57048
C 1.0  		0.3355054421185664 		0.5834723721660615  -0.040391473599175845 		Uiso   ? 		C 		0.57048
C 1.0  		0.8421463230850943 		0.08636765138875258  -0.04193957885907457 		Uiso   ? 		C 		0.57048
C 1.0  		0.8436439804721843 		0.5861713612719599  -0.04165810517545662 		Uiso   ? 		C 		0.57048
C 1.0  		0.27158161002479286 		0.18745706153695163  -0.040250736757366866 		Uiso   ? 		C 		0.57047
C 1.0  		0.27299825462128213 		0.6892236725880853  -0.040672947282793796 		Uiso   ? 		C 		0.57047
C 1.0  		0.7746532535879342 		0.1906467759348317  -0.040109999915557894 		Uiso   ? 		C 		0.57047
C 1.0  		0.7673443612041462 		0.6779369908725096  -0.04109515780822072 		Uiso   ? 		C 		0.57047
H 1.0  		0.3371638425129452 		0.2671999214839533  0.4979269463201538 		Uiso   ? 		H 		0.03385
H 1.0  		0.33467233007094277 		0.764550004907253  0.4996157884218615 		Uiso   ? 		H 		0.03385
H 1.0  		0.8291660807232959 		0.2605751300422024  0.49848989368738966 		Uiso   ? 		H 		0.03385
H 1.0  		0.8217127580040018 		0.7552262243596035  0.4979269463201538 		Uiso   ? 		H 		0.03385
H 1.0  		0.27098176480414427 		0.31332809893021885  0.4980676831619628 		Uiso   ? 		H 		0.03269
H 1.0  		0.26489319353227614 		0.8077338306016292  0.496801051585682 		Uiso   ? 		H 		0.03269
H 1.0  		0.7815169572673628 		0.3216704288939052  0.4952529463257833 		Uiso   ? 		H 		0.03269
H 1.0  		0.7775051442736216 		0.8185297870252233  0.4986306305291987 		Uiso   ? 		H 		0.03269
H 1.0  		0.2009178092664063 		0.24757090980469132  0.4958158936930192 		Uiso   ? 		H 		0.03140
H 1.0  		0.1982138066520743 		0.744920993227991  0.4990528410546256 		Uiso   ? 		H 		0.03140
H 1.0  		0.7039213929927239 		0.24339974482284818  0.4958158936930192 		Uiso   ? 		H 		0.03140
H 1.0  		0.7062713322150914 		0.7495828835018158  0.4975047357947269 		Uiso   ? 		H 		0.03140
H 1.0  		0.27386670314432 		0.2009520070664442  0.5008824199981423 		Uiso   ? 		H 		0.03056
H 1.0  		0.27027339401834916 		0.702473255471587  0.4991935778964346 		Uiso   ? 		H 		0.03056
H 1.0  		0.7635884905270623 		0.193591127686721  0.496660314743873 		Uiso   ? 		H 		0.03056
H 1.0  		0.755686115740525 		0.689469035234076  0.49483073580035636 		Uiso   ? 		H 		0.03056
H 1.0  		0.18246085221021963 		0.30670330748846797  0.5162227357553206 		Uiso   ? 		H 		0.42366
H 1.0  		0.18323122866687236 		0.8067523800176661  0.519318946275118 		Uiso   ? 		H 		0.42366
H 1.0  		0.6800688476917388 		0.2981156148787909  0.519318946275118 		Uiso   ? 		H 		0.42366
H 1.0  		0.6845260933917059 		0.8008636765138876  0.5170671568061744 		Uiso   ? 		H 		0.42366
H 1.0  		0.23073876221928236 		0.3565119246245952  0.5229781041621514 		Uiso   ? 		H 		0.39213
H 1.0  		0.23672510609383612 		0.8614682500736089  0.5219929462694886 		Uiso   ? 		H 		0.39213
H 1.0  		0.7287300710771805 		0.3457159682010011  0.5215707357440617 		Uiso   ? 		H 		0.39213
H 1.0  		0.7295027686797926 		0.8521444695259595  0.5235410515293873 		Uiso   ? 		H 		0.39213
H 1.0  		0.16646359350653803 		0.45490234566689575  0.400677788630152 		Uiso   ? 		H 		0.11390
H 1.0  		0.1638012578604861 		0.9544606929041124  0.39730010442673663 		Uiso   ? 		H 		0.11390
H 1.0  		0.6629545182043525 		0.4534301697909511  0.3961742096922648 		Uiso   ? 		H 		0.11390
H 1.0  		0.6624916205953082 		0.9556875061340663  0.4019444202064328 		Uiso   ? 		H 		0.11390
H 1.0  		0.4649689304603002 		0.1560506428501325  0.3936409465397033 		Uiso   ? 		H 		0.11392
H 1.0  		0.468214652671195 		0.6534007262734322  0.39448536759055713 		Uiso   ? 		H 		0.11392
H 1.0  		0.9666582273303199 		0.1560506428501325  0.3926557886470405 		Uiso   ? 		H 		0.11392
H 1.0  		0.9644578967052884 		0.6450583963097458  0.3992704202120623 		Uiso   ? 		H 		0.11392
H 1.0  		0.3227577523047753 		0.4534301697909511  0.3991296833702533 		Uiso   ? 		H 		0.11046
H 1.0  		0.3122902213505473 		0.9522524290901954  0.39490757811598404 		Uiso   ? 		H 		0.11046
H 1.0  		0.8177371740736987 		0.4531848071449603  0.3957519991668379 		Uiso   ? 		H 		0.11046
H 1.0  		0.8157451782900677 		0.9532338796741584  0.3930779991724674 		Uiso   ? 		H 		0.11046
H 1.0  		0.4629455585392395 		0.3003238786927078  0.3911076833871417 		Uiso   ? 		H 		0.11039
H 1.0  		0.4664084132143826 		0.8104328197075278  0.39941115705387126 		Uiso   ? 		H 		0.11039
H 1.0  		0.9683897844893973 		0.31038374717832956  0.3947668412741751 		Uiso   ? 		H 		0.11039
H 1.0  		0.966478801496367 		0.8084699185396016  0.3963149465340738 		Uiso   ? 		H 		0.11039
H 1.0  		0.17374789488171857 		0.3717244086760232  0.5210077883768257 		Uiso   ? 		H 		0.40804
H 1.0  		0.18270910116888583 		0.8766807341250369  0.5205855778513988 		Uiso   ? 		H 		0.40804
H 1.0  		0.6845918644076039 		0.375159485719894  0.5179115778570282 		Uiso   ? 		H 		0.40804
H 1.0  		0.6796666731796394 		0.8774168220630092  0.5205855778513988 		Uiso   ? 		H 		0.40804
H 1.0  		0.07250287723559747 		0.21003042496810287  0.39181136759618657 		Uiso   ? 		H 		0.11394
H 1.0  		0.07111316147756336 		0.7032093434095594  0.3981445254775905 		Uiso   ? 		H 		0.11394
H 1.0  		0.5733815592386198 		0.2058592599862597  0.3963149465340738 		Uiso   ? 		H 		0.11394
H 1.0  		0.5735977991148441 		0.7103248601432919  0.3925150518052315 		Uiso   ? 		H 		0.11394
H 1.0  		0.21404016081775107 		0.059623122975758176  0.3981445254775905 		Uiso   ? 		H 		0.11396
H 1.0  		0.22108015793110464 		0.5628619099028365  0.3989889465284443 		Uiso   ? 		H 		0.11396
H 1.0  		0.7188029281366808 		0.06109529885170282  0.3981445254775905 		Uiso   ? 		H 		0.11396
H 1.0  		0.7204714087278203 		0.5586907449209934  0.3929372623306584 		Uiso   ? 		H 		0.11396
H 1.0  		0.323461334814629 		0.36559034252625383  0.39884820968663537 		Uiso   ? 		H 		0.11399
H 1.0  		0.3096069140569055 		0.8550888212778487  0.39673715705950074 		Uiso   ? 		H 		0.11399
H 1.0  		0.8179893833703495 		0.3601923643144568  0.395048314957793 		Uiso   ? 		H 		0.11399
H 1.0  		0.8232637204142026 		0.862449700657572  0.3989889465284443 		Uiso   ? 		H 		0.11399
H 1.0  		0.07437886473018064 		0.35700264991657676  0.39181136759618657 		Uiso   ? 		H 		0.11039
H 1.0  		0.0704920526412795 		0.8604867994896458  0.3956112623250289 		Uiso   ? 		H 		0.11039
H 1.0  		0.5705786076110242 		0.36387280400431843  0.39884820968663537 		Uiso   ? 		H 		0.11039
H 1.0  		0.5723521727153488 		0.8582785356757289  0.395329788641411 		Uiso   ? 		H 		0.11039
H 1.0  		0.1647541602260862 		0.20414172146432427  0.39659642021769176 		Uiso   ? 		H 		0.11041
H 1.0  		0.16018588950595697 		0.6990381784277163  0.401099999155579 		Uiso   ? 		H 		0.11041
H 1.0  		0.6637292283009906 		0.20168809500441653  0.3985667360030174 		Uiso   ? 		H 		0.11041
H 1.0  		0.664370448521874 		0.7061536951614487  0.3963149465340738 		Uiso   ? 		H 		0.11041
H 1.0  		0.3232208772317977 		0.17641574246736677  0.5173486304897924 		Uiso   ? 		H 		0.42286
H 1.0  		0.31814661337640865 		0.673275100598685  0.5212892620604437 		Uiso   ? 		H 		0.42286
H 1.0  		0.8226815350893171 		0.13838453233879675  0.5180523146988373 		Uiso   ? 		H 		0.42286
H 1.0  		0.8159795650230447 		0.6315634507802532  0.5162227357553206 		Uiso   ? 		H 		0.42286
H 1.0  		0.36998387558504164 		0.060849936205712045  0.39673715705950074 		Uiso   ? 		H 		0.11041
H 1.0  		0.3663488994907907 		0.5601629207969379  0.3935002096978943 		Uiso   ? 		H 		0.11041
H 1.0  		0.8711583816969537 		0.06109529885170282  0.3926557886470405 		Uiso   ? 		H 		0.11041
H 1.0  		0.8758345940461387 		0.5591814702129748  0.3981445254775905 		Uiso   ? 		H 		0.11041
H 1.0  		0.2204978266221965 		0.15286092845225244  0.3961742096922648 		Uiso   ? 		H 		0.11046
H 1.0  		0.21978956949539047 		0.6546275395033861  0.39659642021769176 		Uiso   ? 		H 		0.11046
H 1.0  		0.716390626625343 		0.14721758759446463  0.4003963149465341 		Uiso   ? 		H 		0.11046
H 1.0  		0.7280202394084163 		0.663460594759054  0.3911076833871417 		Uiso   ? 		H 		0.11046
H 1.0  		0.3951046258001037 		0.21223868878201985  0.5163634725971296 		Uiso   ? 		H 		0.41207
H 1.0  		0.3912002184655068 		0.7122877613112181  0.5211485252186346 		Uiso   ? 		H 		0.41207
H 1.0  		0.8634834302055153 		0.21616449111787223  0.5187559989078822 		Uiso   ? 		H 		0.41207
H 1.0  		0.8495304014114953 		0.7041907939935225  0.5179115778570282 		Uiso   ? 		H 		0.41207
H 1.0  		0.3325665168013459 		0.4126999705564825  0.4557058937774613 		Uiso   ? 		H 		0.03478
H 1.0  		0.3258164032899049 		0.9083325154578468  0.4658389463877075 		Uiso   ? 		H 		0.03478
H 1.0  		0.8329655985376521 		0.4156443223083718  0.46175757797524725 		Uiso   ? 		H 		0.03478
H 1.0  		0.8353132166140602 		0.9154480321915792  0.45612810430288825 		Uiso   ? 		H 		0.03478
H 1.0  		0.11067863344414829 		0.41515359701639026  0.4585206306136408 		Uiso   ? 		H 		0.03522
H 1.0  		0.10957826531811532 		0.9174109333595054  0.4506393674723382 		Uiso   ? 		H 		0.03522
H 1.0  		0.6059756298985863 		0.4117185199725194  0.45950578850630364 		Uiso   ? 		H 		0.03522
H 1.0  		0.611381444324168 		0.9159387574835608  0.4554244200938434 		Uiso   ? 		H 		0.03522
H 1.0  		0.3659032884755088 		0.3013053292766709  0.3942038939069392 		Uiso   ? 		H 		0.11391
H 1.0  		0.3787925681928229 		0.8204926881931495  0.4013814728391969 		Uiso   ? 		H 		0.11391
H 1.0  		0.8759741547717477 		0.3138188242222004  0.3991296833702533 		Uiso   ? 		H 		0.11391
H 1.0  		0.8716905893917009 		0.8050348414957308  0.3961742096922648 		Uiso   ? 		H 		0.11391
H 1.0  		0.10891274605666965 		0.18892923741289627  0.4544392622011805 		Uiso   ? 		H 		0.03248
H 1.0  		0.10616939762001693 		0.6904504858180391  0.4562688411446972 		Uiso   ? 		H 		0.03248
H 1.0  		0.6101770625820304 		0.18892923741289627  0.4551429464102254 		Uiso   ? 		H 		0.03248
H 1.0  		0.6099266551453155 		0.6911865737560114  0.45401705167575357 		Uiso   ? 		H 		0.03248
H 1.0  		0.4302795000294981 		0.32338796741584064  0.4533133674667087 		Uiso   ? 		H 		0.03224
H 1.0  		0.4307716476229569 		0.8224555893610757  0.45429852535937154 		Uiso   ? 		H 		0.03224
H 1.0  		0.92947585589958 		0.3226518794778683  0.45922431482268566 		Uiso   ? 		H 		0.03224
H 1.0  		0.926119108668523 		0.8229463146530573  0.45711326219555104 		Uiso   ? 		H 		0.03224
H 1.0  		0.3573762011328156 		0.135930905878889  0.519741156800545 		Uiso   ? 		H 		0.41198
H 1.0  		0.36088487810716785 		0.6372067916380411  0.5222744199531064 		Uiso   ? 		H 		0.41198
H 1.0  		0.8948828583431379 		0.17101776425556972  0.5181930515406462 		Uiso   ? 		H 		0.41198
H 1.0  		0.8874887978378196 		0.6713121994307588  0.5179115778570282 		Uiso   ? 		H 		0.41198
H 1.0  		0.4277951293344301 		0.09912650898027285  0.45950578850630364 		Uiso   ? 		H 		0.03404
H 1.0  		0.4280419174101272 		0.5977034056335264  0.4502171569469112 		Uiso   ? 		H 		0.03404
H 1.0  		0.9337846942421685 		0.10305231131612523  0.4530318937830907 		Uiso   ? 		H 		0.03404
H 1.0  		0.9260772143822649 		0.5954951418196095  0.45669105167012414 		Uiso   ? 		H 		0.03404
H 1.0  		0.20132874907631998 		0.09667288252036511  0.4602094727153485 		Uiso   ? 		H 		0.03474
H 1.0  		0.2050915831912819 		0.6001570320934342  0.4554244200938434 		Uiso   ? 		H 		0.03474
H 1.0  		0.7059030979455044 		0.09691824516635589  0.4551429464102254 		Uiso   ? 		H 		0.03474
H 1.0  		0.7003885796457199 		0.5967219550495633  0.45176526220680996 		Uiso   ? 		H 		0.03474
H 1.0  		0.27327677545252127 		0.06207674943566592  0.4958158936930192 		Uiso   ? 		H 		0.03508
H 1.0  		0.2620578918452717 		0.5623711846108549  0.4945492621167384 		Uiso   ? 		H 		0.03508
H 1.0  		0.7700875959818099 		0.06379428795760134  0.4973639989529179 		Uiso   ? 		H 		0.03508
H 1.0  		0.751632927746549 		0.5559917558150947  0.49271968317322173 		Uiso   ? 		H 		0.03508
H 1.0  		0.4661175233654571 		0.1906467759348317  0.4949714726421653 		Uiso   ? 		H 		0.02990
H 1.0  		0.46762165722943555 		0.6857885955442143  0.49567515685121016 		Uiso   ? 		H 		0.02990
H 1.0  		0.9725408662407024 		0.1962901167926195  0.4924382094896038 		Uiso   ? 		H 		0.02990
H 1.0  		0.9658083479749571 		0.6953577387378547  0.4973639989529179 		Uiso   ? 		H 		0.02990
H 1.0  		0.06502038586584441 		0.24266365688487587  0.49201599896417686 		Uiso   ? 		H 		0.03139
H 1.0  		0.06854018160900399 		0.7520365099617234  0.496660314743873 		Uiso   ? 		H 		0.03139
H 1.0  		0.5693012317720987 		0.24487192069879282  0.4958158936930192 		Uiso   ? 		H 		0.03139
H 1.0  		0.5721724382294624 		0.7461478064579449  0.49539368316759225 		Uiso   ? 		H 		0.03139
H 1.0  		0.20866580386355427 		0.4504858180390618  0.5010231568399512 		Uiso   ? 		H 		0.03342
H 1.0  		0.21134859187117283 		0.95053489056826  0.4973639989529179 		Uiso   ? 		H 		0.03342
H 1.0  		0.7107296164871051 		0.4465600157032094  0.4996157884218615 		Uiso   ? 		H 		0.03342
H 1.0  		0.7090751117806438 		0.9532338796741584  0.49708252526929997 		Uiso   ? 		H 		0.03342
H 1.0  		0.2659876858013993 		0.4465600157032094  0.5007416831563333 		Uiso   ? 		H 		0.03458
H 1.0  		0.28290963650105566 		0.9529885170281677  0.4980676831619628 		Uiso   ? 		H 		0.03458
H 1.0  		0.7730813685390654 		0.4526940818529787  0.4980676831619628 		Uiso   ? 		H 		0.03458
H 1.0  		0.7782242282011895 		0.9529885170281677  0.4979269463201538 		Uiso   ? 		H 		0.03458
H 1.0  		0.06621577499218986 		0.3160270880361174  0.4941270515913115 		Uiso   ? 		H 		0.03328
H 1.0  		0.07484828782503522 		0.8160761605653156  0.4980676831619628 		Uiso   ? 		H 		0.03328
H 1.0  		0.5730529794432869 		0.3135734615762097  0.49834915684558073 		Uiso   ? 		H 		0.03328
H 1.0  		0.5735233764601209 		0.8202473255471587  0.4965195779020641 		Uiso   ? 		H 		0.03328
H 1.0  		0.47347744863531827 		0.2703896358818334  0.49173452528055894 		Uiso   ? 		H 		0.03210
H 1.0  		0.4715206433430787 		0.7773088624987733  0.49483073580035636 		Uiso   ? 		H 		0.03210
H 1.0  		0.9692739617481276 		0.26965354794386104  0.4946899989585474 		Uiso   ? 		H 		0.03210
H 1.0  		0.9620396056780518 		0.7596427519874375  0.4990528410546256 		Uiso   ? 		H 		0.03210
H 1.0  		0.3300838666322586 		0.0583963097458043  0.49286042001503066 		Uiso   ? 		H 		0.03500
H 1.0  		0.3355947655710254 		0.5594268328589656  0.4980676831619628 		Uiso   ? 		H 		0.03500
H 1.0  		0.8362618499897422 		0.06354892531161056  0.4952529463257833 		Uiso   ? 		H 		0.03500
H 1.0  		0.8296256186143341 		0.5577092943370302  0.49623810421844605 		Uiso   ? 		H 		0.03500
H 1.0  		0.29060906534211267 		0.28118559230542745  0.4355805253987779 		Uiso   ? 		H 		0.13923
H 1.0  		0.28957211476098477 		0.7780449504367455  0.4385359990767663 		Uiso   ? 		H 		0.13923
H 1.0  		0.791154898559884 		0.28314849347335364  0.4361434727660138 		Uiso   ? 		H 		0.13923
H 1.0  		0.794319607980178 		0.7824614780645796  0.4383952622349574 		Uiso   ? 		H 		0.13923
H 1.0  		0.24901311203256626 		1.0084404750220828  0.43403242013887916 		Uiso   ? 		H 		0.13936
H 1.0  		0.25122639561137483 		0.51010894101482  0.43741010434229455 		Uiso   ? 		H 		0.13936
H 1.0  		0.7543235394550359 		1.0101580135440182  0.4341731569806881 		Uiso   ? 		H 		0.13936
H 1.0  		0.7477085226863414 		0.5069192266169399  0.43445463066430606 		Uiso   ? 		H 		0.13936
H 1.0  		0.021407114801203428 		0.23235842575326332  0.43501757803154195 		Uiso   ? 		H 		0.13934
H 1.0  		1.0180467137986093 		0.7360879379723232  0.4334694727716432 		Uiso   ? 		H 		0.13934
H 1.0  		0.5167633734696173 		0.2345666895671803  0.43529905171515987 		Uiso   ? 		H 		0.13934
H 1.0  		0.52191270960863 		0.7301992344685445  0.43741010434229455 		Uiso   ? 		H 		0.13934
H 1.0  		0.24332786750383328 		0.23039552458533713  0.4378323148677215 		Uiso   ? 		H 		0.13931
H 1.0  		0.2475004078637179 		0.7368240259102955  0.4364249464496317 		Uiso   ? 		H 		0.13931
H 1.0  		0.7493503017570038 		0.23481205221317109  0.4362842096078227 		Uiso   ? 		H 		0.13931
H 1.0  		0.7452991429409417 		0.7358425753263325  0.4375508411841035 		Uiso   ? 		H 		0.13931
H 1.0  		0.29586603445824794 		1.0052507606242027  0.440084104336665 		Uiso   ? 		H 		0.13979
H 1.0  		0.29647800469471675 		0.5083914024928845  0.43881747276038424 		Uiso   ? 		H 		0.13979
H 1.0  		0.8026157496418556 		1.0094219256060457  0.43825452539314835 		Uiso   ? 		H 		0.13979
H 1.0  		0.7952493802201396 		0.5076553145549122  0.4378323148677215 		Uiso   ? 		H 		0.13979
H 1.0  		0.019121161418685972 		0.28388458141132594  0.43487684118973297 		Uiso   ? 		H 		0.13940
H 1.0  		1.020008242716723 		0.7812346648346257  0.4361434727660138 		Uiso   ? 		H 		0.13940
H 1.0  		0.515495882834508 		0.27750515261556585  0.4341731569806881 		Uiso   ? 		H 		0.13940
H 1.0  		0.517208351539887 		0.7836882912945333  0.4393804201276202 		Uiso   ? 		H 		0.13940
H 1.0  		0.29439619849763693 		1.0086858376680734  0.16212884176393927 		Uiso   ? 		H 		0.13402
H 1.0  		0.2906750313509551 		0.5074099519089215  0.16606947333459057 		Uiso   ? 		H 		0.13402
H 1.0  		0.7898093982340674 		1.0101580135440182  0.16550652596735468 		Uiso   ? 		H 		0.13402
H 1.0  		0.7928967142247784 		0.5105996663068015  0.16621021017639956 		Uiso   ? 		H 		0.13402
H 1.0  		0.2926458125278727 		1.004760035332221  0.3169393677538118 		Uiso   ? 		H 		0.13359
H 1.0  		0.2895315676987067 		0.5093728530768477  0.3224281045843619 		Uiso   ? 		H 		0.13359
H 1.0  		0.7922606722657252 		1.0086858376680734  0.32003557827360934 		Uiso   ? 		H 		0.13359
H 1.0  		0.7906884785649229 		0.5061831386789676  0.32003557827360934 		Uiso   ? 		H 		0.13359
H 1.0  		0.019618356931097883 		0.28020414172146435  0.16832126280353418 		Uiso   ? 		H 		0.13402
H 1.0  		1.0183851787977583 		0.7903130827362843  0.16353621018202902 		Uiso   ? 		H 		0.13402
H 1.0  		0.52024520293947 		0.28020414172146435  0.16635094701820852 		Uiso   ? 		H 		0.13402
H 1.0  		0.5178786914023077 		0.784179016586515  0.1652250522837367 		Uiso   ? 		H 		0.13402
H 1.0  		0.021318278309734096 		0.28020414172146435  0.3215836835335081 		Uiso   ? 		H 		0.13360
H 1.0  		1.0151867074440082 		0.7822161154185888  0.3175023151210477 		Uiso   ? 		H 		0.13360
H 1.0  		0.5183656607339364 		0.28069486701344587  0.31862820985551954 		Uiso   ? 		H 		0.13360
H 1.0  		0.5167417042269479 		0.7814800274806164  0.31989484143180036 		Uiso   ? 		H 		0.13360
H 1.0  		0.14677935190055308 		0.48778094022965945  0.22433452584350627 		Uiso   ? 		H 		0.10546
H 1.0  		0.14455727069889657 		0.9843949357149867  0.22236421005818063 		Uiso   ? 		H 		0.10546
H 1.0  		0.6460983875295158 		0.48729021493767793  0.22560115741978704 		Uiso   ? 		H 		0.10546
H 1.0  		0.6470965282582344 		0.9843949357149867  0.22349010479265244 		Uiso   ? 		H 		0.10546
H 1.0  		0.15059537737963677 		0.48606340170772405  0.3795672623588058 		Uiso   ? 		H 		0.10668
H 1.0  		0.14719696318029968 		0.9841495730689961  0.3761895781553904 		Uiso   ? 		H 		0.10668
H 1.0  		0.6451016753587325 		0.48827166552164103  0.3770339992062442 		Uiso   ? 		H 		0.10668
H 1.0  		0.6487635802914385 		0.9839042104230052  0.3790043149915699 		Uiso   ? 		H 		0.10668
H 1.0  		0.49576424438735595 		0.1351948179409167  0.22292715742541652 		Uiso   ? 		H 		0.10546
H 1.0  		0.5005390647728375 		0.6347531651781334  0.2236308416344614 		Uiso   ? 		H 		0.10546
H 1.0  		0.9953703065023604 		0.13740308175483368  0.22560115741978704 		Uiso   ? 		H 		0.10546
H 1.0  		0.9991965581622273 		0.6354892531161056  0.22349010479265244 		Uiso   ? 		H 		0.10546
H 1.0  		0.4981016362829807 		0.1351948179409167  0.378300630782525 		Uiso   ? 		H 		0.10666
H 1.0  		0.5031458879088084 		0.634017077240161  0.3764710518390083 		Uiso   ? 		H 		0.10666
H 1.0  		0.99638229277288 		0.13347727941898127  0.37450073605368267 		Uiso   ? 		H 		0.10666
H 1.0  		0.9963508519853834 		0.6310727254882718  0.37801915709890704 		Uiso   ? 		H 		0.10666
H 1.0  		0.3726652027096911 		0.4894984787515949  0.2225049468999896 		Uiso   ? 		H 		0.10679
H 1.0  		0.3651461412995327 		0.9831681224850328  0.22236421005818063 		Uiso   ? 		H 		0.10679
H 1.0  		0.8729240094414207 		0.48876239081362255  0.22602336794521397 		Uiso   ? 		H 		0.10679
H 1.0  		0.869696418446133 		0.9846402983609776  0.22180126269094472 		Uiso   ? 		H 		0.10679
H 1.0  		0.3703014179455226 		0.48434586318578865  0.3788635781497609 		Uiso   ? 		H 		0.10709
H 1.0  		0.3600616512633605 		0.9802237707331437  0.3787228413079519 		Uiso   ? 		H 		0.10709
H 1.0  		0.8706347609909643 		0.48630876435371484  0.37717473604805324 		Uiso   ? 		H 		0.10709
H 1.0  		0.8686668369299175 		0.9851310236529591  0.3766117886808173 		Uiso   ? 		H 		0.10709
H 1.0  		0.4938344649086724 		0.35700264991657676  0.2225049468999896 		Uiso   ? 		H 		0.10679
H 1.0  		0.49610986781732763 		0.8604867994896458  0.22447526268531523 		Uiso   ? 		H 		0.10679
H 1.0  		0.9997430170258099 		0.36289135342035533  0.2236308416344614 		Uiso   ? 		H 		0.10679
H 1.0  		0.9942437728257618 		0.8597507115516735  0.22334936795084342 		Uiso   ? 		H 		0.10679
H 1.0  		0.49395714466755325 		0.3572480125625675  0.3775969465734801 		Uiso   ? 		H 		0.10709
H 1.0  		0.4976037755005228 		0.8558249092158211  0.38027094656785065 		Uiso   ? 		H 		0.10709
H 1.0  		1.0001832714702055 		0.35994700166846605  0.3790043149915699 		Uiso   ? 		H 		0.10709
H 1.0  		0.9961473867538796 		0.858033173029738  0.378159893940716 		Uiso   ? 		H 		0.10709
H 1.0  		0.2160752521275977 		0.05986848562174895  0.24136368370239225 		Uiso   ? 		H 		0.11409
H 1.0  		0.22367818344422757 		0.5604082834429287  0.24192663106962817 		Uiso   ? 		H 		0.11409
H 1.0  		0.7208468170693754 		0.06305820001962902  0.2422081047532461 		Uiso   ? 		H 		0.11409
H 1.0  		0.7103376191468672 		0.5596721955049564  0.2468524205329423 		Uiso   ? 		H 		0.11409
H 1.0  		0.3201249096022615 		0.3601923643144568  0.2043498943066318 		Uiso   ? 		H 		0.11405
H 1.0  		0.3217146985487595 		0.8661301403474335  0.20111294694502538 		Uiso   ? 		H 		0.11405
H 1.0  		0.8177440238525879 		0.35970163902247526  0.20800905219366517 		Uiso   ? 		H 		0.11405
H 1.0  		0.8196097205163206 		0.860241436843655  0.2056165258829126 		Uiso   ? 		H 		0.11405
H 1.0  		0.16576918192153292 		0.45563843360486805  0.24361547317133586 		Uiso   ? 		H 		0.11410
H 1.0  		0.1661867932012795 		0.9520070664442046  0.23925263107525763 		Uiso   ? 		H 		0.11410
H 1.0  		0.6647530476192852 		0.45490234566689575  0.24305252580409997 		Uiso   ? 		H 		0.11410
H 1.0  		0.6609953917661535 		0.9539699676121308  0.24488210474761662 		Uiso   ? 		H 		0.11410
H 1.0  		0.46611887058943713 		0.1494258514083816  0.24347473632952688 		Uiso   ? 		H 		0.11409
H 1.0  		0.4679035544625689 		0.6519285503974875  0.24445989422218972 		Uiso   ? 		H 		0.11409
H 1.0  		0.9660142803364429 		0.16071253312395722  0.23854894686621275 		Uiso   ? 		H 		0.11409
H 1.0  		0.9657703493766165 		0.6583079791932477  0.23742305213174095 		Uiso   ? 		H 		0.11409
H 1.0  		0.17157215526529462 		0.45661988418883115  0.20744610482642925 		Uiso   ? 		H 		0.11405
H 1.0  		0.16117036300193094 		0.9564235940720386  0.20252031536311513 		Uiso   ? 		H 		0.11405
H 1.0  		0.6670006291014614 		0.4551477083128865  0.20786831535185618 		Uiso   ? 		H 		0.11405
H 1.0  		0.6729517824846236 		0.9532338796741584  0.20969789429537286 		Uiso   ? 		H 		0.11405
H 1.0  		0.17239804423202845 		0.45784669741878503  0.36436768344343645 		Uiso   ? 		H 		0.11540
H 1.0  		0.16841030296087134 		0.9534792423201492  0.36098999924002106 		Uiso   ? 		H 		0.11540
H 1.0  		0.6659622499623981 		0.45392089508293265  0.36098999924002106 		Uiso   ? 		H 		0.11540
H 1.0  		0.6713833384877161 		0.9551967808420846  0.3636639992343916 		Uiso   ? 		H 		0.11540
H 1.0  		0.31530105318358725 		0.35479438610265973  0.36225663081630183 		Uiso   ? 		H 		0.11545
H 1.0  		0.3144460445753161 		0.8575424477377565  0.3605677887145941 		Uiso   ? 		H 		0.11545
H 1.0  		0.8230498016839377 		0.3643635292963  0.35817526240384157 		Uiso   ? 		H 		0.11545
H 1.0  		0.820803648759697 		0.8622043380115811  0.36127147292363904 		Uiso   ? 		H 		0.11545
H 1.0  		0.4664234923211747 		0.15555991755815096  0.20505357851567668 		Uiso   ? 		H 		0.11404
H 1.0  		0.46672722146488826 		0.6534007262734322  0.2044906311484408 		Uiso   ? 		H 		0.11404
H 1.0  		0.9658388148404746 		0.1501619393463539  0.20223884167949718 		Uiso   ? 		H 		0.11404
H 1.0  		0.967165649023515 		0.6521739130434783  0.20364621009758693 		Uiso   ? 		H 		0.11404
H 1.0  		0.4658318441033953 		0.14672686230248308  0.35662715714394283 		Uiso   ? 		H 		0.11542
H 1.0  		0.4703548284942266 		0.6504563745215428  0.3546568413586172 		Uiso   ? 		H 		0.11542
H 1.0  		0.9647393393024657 		0.16071253312395722  0.36211589397449284 		Uiso   ? 		H 		0.11542
H 1.0  		0.9628436304091716 		0.6558543527333399  0.36155294660725695 		Uiso   ? 		H 		0.11542
H 1.0  		0.32541504003187416 		0.45661988418883115  0.24516357843123457 		Uiso   ? 		H 		0.11110
H 1.0  		0.31766821434964987 		0.9532338796741584  0.2399563152843025 		Uiso   ? 		H 		0.11110
H 1.0  		0.815450246769202 		0.45711060948081267  0.2399563152843025 		Uiso   ? 		H 		0.11110
H 1.0  		0.820943550462273 		0.9547060555501031  0.24192663106962817 		Uiso   ? 		H 		0.11110
H 1.0  		0.4646302058181394 		0.3032682304445971  0.24094147317696532 		Uiso   ? 		H 		0.11110
H 1.0  		0.46417610583194285 		0.8072431053096477  0.24178589422781918 		Uiso   ? 		H 		0.11110
H 1.0  		0.9662056205521261 		0.3047404063205418  0.23911189423344867 		Uiso   ? 		H 		0.11110
H 1.0  		0.9667329586369764 		0.8106781823535185  0.23897115739163965 		Uiso   ? 		H 		0.11110
H 1.0  		0.3227665499276232 		0.4551477083128865  0.2044906311484408 		Uiso   ? 		H 		0.11105
H 1.0  		0.3173987831093039 		0.9539699676121308  0.20322399957216 		Uiso   ? 		H 		0.11105
H 1.0  		0.8210976710086506 		0.45735597212680346  0.20646094693376643 		Uiso   ? 		H 		0.11105
H 1.0  		0.8224967203594441 		0.9556875061340663  0.2015351574704523 		Uiso   ? 		H 		0.11105
H 1.0  		0.321605491029679 		0.4536755324369418  0.3576123150366056 		Uiso   ? 		H 		0.11186
H 1.0  		0.31429244331496176 		0.9520070664442046  0.35944189398012233 		Uiso   ? 		H 		0.11186
H 1.0  		0.8167733312483478 		0.4546569830209049  0.36141220976544797 		Uiso   ? 		H 		0.11186
H 1.0  		0.8227092105317736 		0.9556875061340663  0.35845673608745954 		Uiso   ? 		H 		0.11186
H 1.0  		0.46589634922926865 		0.30155069192266176  0.20941642061175492 		Uiso   ? 		H 		0.11106
H 1.0  		0.4677995575303522 		0.8153400726273433  0.20477210483205874 		Uiso   ? 		H 		0.11106
H 1.0  		0.9675509425688864 		0.31848071449602516  0.20125368378683434 		Uiso   ? 		H 		0.11106
H 1.0  		0.9661589056648929 		0.8052802041417215  0.208853473244519 		Uiso   ? 		H 		0.11106
H 1.0  		0.4651232459996222 		0.31062910982432035  0.3563456834603249 		Uiso   ? 		H 		0.11185
H 1.0  		0.46542465399737637 		0.8020904897438415  0.36380473607620056 		Uiso   ? 		H 		0.11185
H 1.0  		0.965520006589969 		0.30719403278044954  0.35944189398012233 		Uiso   ? 		H 		0.11185
H 1.0  		0.9648358211857472 		0.8077338306016292  0.3591604202965044 		Uiso   ? 		H 		0.11185
H 1.0  		0.07023122403083701 		0.21101187555206596  0.24009705212611146 		Uiso   ? 		H 		0.11410
H 1.0  		0.0711724236915392 		0.7088526842673472  0.23812673634078582 		Uiso   ? 		H 		0.11410
H 1.0  		0.5706015917526401 		0.20242418294238887  0.24291178896229096 		Uiso   ? 		H 		0.11410
H 1.0  		0.5741037922501039 		0.7083619589753657  0.2399563152843025 		Uiso   ? 		H 		0.11410
H 1.0  		0.3211632887413248 		0.36141917754441066  0.2410822100187743 		Uiso   ? 		H 		0.11410
H 1.0  		0.3174713715790574 		0.8614682500736089  0.24065999949334738 		Uiso   ? 		H 		0.11410
H 1.0  		0.817474592612242 		0.36043772696044757  0.242771052120482 		Uiso   ? 		H 		0.11410
H 1.0  		0.8221114591391063 		0.8626950633035627  0.24234884159505507 		Uiso   ? 		H 		0.11410
H 1.0  		0.07392333618604878 		0.36289135342035533  0.2415044205442012 		Uiso   ? 		H 		0.11110
H 1.0  		0.07218549754302728 		0.8651486897634705  0.24319326264590893 		Uiso   ? 		H 		0.11110
H 1.0  		0.5702610329255096 		0.3670625184021985  0.2450228415894256 		Uiso   ? 		H 		0.11110
H 1.0  		0.5722734810707073 		0.8666208656394151  0.24699315737475125 		Uiso   ? 		H 		0.11110
H 1.0  		0.16355375550582124 		0.2068407105702228  0.24248957843686406 		Uiso   ? 		H 		0.11110
H 1.0  		0.16581156316878068 		0.706889783099421  0.2415044205442012 		Uiso   ? 		H 		0.11110
H 1.0  		0.6606076144069121 		0.20266954558837963  0.24643021000751533 		Uiso   ? 		H 		0.11110
H 1.0  		0.6685656320464075 		0.7132692118951811  0.23953410475887557 		Uiso   ? 		H 		0.11110
H 1.0  		0.0738094540500158 		0.3643635292963  0.2049128416738677 		Uiso   ? 		H 		0.11105
H 1.0  		0.07449002009321987 		0.8646579644714889  0.20406842062301384 		Uiso   ? 		H 		0.11105
H 1.0  		0.5700526980841092 		0.35602119933261367  0.2095571574535639 		Uiso   ? 		H 		0.11105
H 1.0  		0.571879048925521 		0.8607321621356365  0.20871273640271004 		Uiso   ? 		H 		0.11105
H 1.0  		0.07140632346352659 		0.3633820787123369  0.3590196834546954 		Uiso   ? 		H 		0.11185
H 1.0  		0.06969255654308937 		0.8644126018254982  0.35662715714394283 		Uiso   ? 		H 		0.11185
H 1.0  		0.5706531439247364 		0.3665717931102169  0.3569086308275608 		Uiso   ? 		H 		0.11185
H 1.0  		0.5731868593049304 		0.861222887427618  0.3604270518727852 		Uiso   ? 		H 		0.11185
H 1.0  		0.16657028488671474 		0.20904897438413977  0.20463136799024975 		Uiso   ? 		H 		0.11106
H 1.0  		0.17414266800387185 		0.715477475709098  0.2095571574535639 		Uiso   ? 		H 		0.11106
H 1.0  		0.6679660787938042 		0.21101187555206596  0.2066016837755754 		Uiso   ? 		H 		0.11106
H 1.0  		0.6702655534250437 		0.7132692118951811  0.20632021009195745 		Uiso   ? 		H 		0.11106
H 1.0  		0.16473888612634977 		0.20708607321621358  0.3608492623982121 		Uiso   ? 		H 		0.11185
H 1.0  		0.16815775268725341 		0.7086073216213564  0.36113073608183 		Uiso   ? 		H 		0.11185
H 1.0  		0.6650129669578156 		0.20340563352635196  0.36070852555640315 		Uiso   ? 		H 		0.11185
H 1.0  		0.6684910957326953 		0.7105702227892826  0.3605677887145941 		Uiso   ? 		H 		0.11185
H 1.0  		0.36557852303413796 		0.060113848267739724  0.2071646311428113 		Uiso   ? 		H 		0.11105
H 1.0  		0.3780446565917628 		0.5618804593188733  0.20195736799587924 		Uiso   ? 		H 		0.11105
H 1.0  		0.8715833620416127 		0.06109529885170282  0.20646094693376643 		Uiso   ? 		H 		0.11105
H 1.0  		0.8733023072238801 		0.5626165472568457  0.2066016837755754 		Uiso   ? 		H 		0.11105
H 1.0  		0.3654141763069771 		0.05766022180783198  0.3628195781835377 		Uiso   ? 		H 		0.11183
H 1.0  		0.37339394452309743 		0.5606536460889195  0.3597233676637403 		Uiso   ? 		H 		0.11183
H 1.0  		0.8702186105941869 		0.0613406614976936  0.36127147292363904 		Uiso   ? 		H 		0.11183
H 1.0  		0.8708246403236786 		0.5589361075669841  0.35944189398012233 		Uiso   ? 		H 		0.11183
H 1.0  		0.22024599062754624 		0.1570320934340956  0.2073053679846203 		Uiso   ? 		H 		0.11105
H 1.0  		0.21980716474108622 		0.6580626165472568  0.2071646311428113 		Uiso   ? 		H 		0.11105
H 1.0  		0.7151508760827574 		0.15408774168220632  0.20646094693376643 		Uiso   ? 		H 		0.11105
H 1.0  		0.7235074811983684 		0.6595347924232016  0.20786831535185618 		Uiso   ? 		H 		0.11105
H 1.0  		0.21834885317631691 		0.15408774168220632  0.36098999924002106 		Uiso   ? 		H 		0.11188
H 1.0  		0.22247092894507353 		0.6565904406713123  0.3604270518727852 		Uiso   ? 		H 		0.11188
H 1.0  		0.7245925752246649 		0.16022180783197568  0.3642269466016275 		Uiso   ? 		H 		0.11188
H 1.0  		0.7137787555704191 		0.6507017371675337  0.3569086308275608 		Uiso   ? 		H 		0.11188
H 1.0  		0.3751077114435346 		0.059623122975758176  0.24263031527867301 		Uiso   ? 		H 		0.11110
H 1.0  		0.36759097117933576 		0.5596721955049564  0.23967484160068456 		Uiso   ? 		H 		0.11110
H 1.0  		0.8720740810771361 		0.06207674943566592  0.23981557844249352 		Uiso   ? 		H 		0.11110
H 1.0  		0.8743888298081121 		0.5613897340268917  0.24445989422218972 		Uiso   ? 		H 		0.11110
H 1.0  		0.2234180691127528 		0.15997644518598492  0.23840821002440377 		Uiso   ? 		H 		0.11110
H 1.0  		0.2202145498400495 		0.6546275395033861  0.23925263107525763 		Uiso   ? 		H 		0.11110
H 1.0  		0.7202112943963455 		0.1582589066640495  0.2399563152843025 		Uiso   ? 		H 		0.11110
H 1.0  		0.708882683983992 		0.6489841986455982  0.24516357843123457 		Uiso   ? 		H 		0.11110
H 1.0  		0.37306453678980783 		0.30670330748846797  0.24234884159505507 		Uiso   ? 		H 		0.11409
H 1.0  		0.3721437894906722 		0.8084699185396016  0.24136368370239225 		Uiso   ? 		H 		0.11409
H 1.0  		0.8744121872517288 		0.3111198351163019  0.24530431527304355 		Uiso   ? 		H 		0.11409
H 1.0  		0.8774060734679733 		0.8126410835214447  0.24305252580409997 		Uiso   ? 		H 		0.11409
H 1.0  		0.33629505301294027 		0.417607223476298  0.14411452601239047 		Uiso   ? 		H 		0.02802
H 1.0  		0.33406649533439536 		0.9188831092354501  0.14678852600676098 		Uiso   ? 		H 		0.02802
H 1.0  		0.8348627359888815 		0.41858867406026107  0.152558736520929 		Uiso   ? 		H 		0.02802
H 1.0  		0.8354118246503568 		0.916920208067524  0.14481821022143535 		Uiso   ? 		H 		0.02802
H 1.0  		0.3341284843213649 		0.41539895966238105  0.2947029467479938 		Uiso   ? 		H 		0.02805
H 1.0  		0.33373780188007346 		0.9139758563156346  0.29357705201352197 		Uiso   ? 		H 		0.02805
H 1.0  		0.8335285327409284 		0.4129453332024733  0.30131757831301564 		Uiso   ? 		H 		0.02805
H 1.0  		0.8384852950992667 		0.9183923839434684  0.2997694730531169 		Uiso   ? 		H 		0.02805
H 1.0  		0.10955924151448417 		0.41588968495436257  0.14158126285982892 		Uiso   ? 		H 		0.02802
H 1.0  		0.10845007576560328 		0.9164294827755423  0.1462255786395251 		Uiso   ? 		H 		0.02802
H 1.0  		0.6078158262817992 		0.41539895966238105  0.14805515758304177 		Uiso   ? 		H 		0.02802
H 1.0  		0.6093222812917372 		0.916920208067524  0.14650705232314304 		Uiso   ? 		H 		0.02802
H 1.0  		0.11013097334060837 		0.4149082343703995  0.29836210463502716 		Uiso   ? 		H 		0.02805
H 1.0  		0.1066996897958391 		0.9125036804396899  0.2972362099005554 		Uiso   ? 		H 		0.02805
H 1.0  		0.6086986563165495 		0.41588968495436257  0.30061389410397077 		Uiso   ? 		H 		0.02805
H 1.0  		0.6090681241511275 		0.9147119442536069  0.3024434730474874 		Uiso   ? 		H 		0.02805
H 1.0  		0.1093881909924567 		0.19285503974874868  0.14608484179771614 		Uiso   ? 		H 		0.02802
H 1.0  		0.11127795937877355 		0.6921680243399746  0.14608484179771614 		Uiso   ? 		H 		0.02802
H 1.0  		0.6070883180333839 		0.19040141328884091  0.1507291575774123 		Uiso   ? 		H 		0.02802
H 1.0  		0.6123955244226691 		0.6931494749239376  0.1542475786226367 		Uiso   ? 		H 		0.02802
H 1.0  		0.1078350210952856 		0.19187358916478559  0.30103610462939767 		Uiso   ? 		H 		0.02805
H 1.0  		0.11077844272040224 		0.689469035234076  0.30159905199663356 		Uiso   ? 		H 		0.02805
H 1.0  		0.6118857815835145 		0.1906467759348317  0.29639178884970147 		Uiso   ? 		H 		0.02805
H 1.0  		0.6133922365934523 		0.6921680243399746  0.30356936778195925 		Uiso   ? 		H 		0.02805
H 1.0  		0.4269125266176579 		0.3238786927078222  0.14538115758867123 		Uiso   ? 		H 		0.02802
H 1.0  		0.4247497076299772 		0.8261360290509373  0.14538115758867123 		Uiso   ? 		H 		0.02802
H 1.0  		0.9296730719721731 		0.3255962312297576  0.1434108418033456 		Uiso   ? 		H 		0.02802
H 1.0  		0.9303295662927928 		0.8271174796349005  0.1462255786395251 		Uiso   ? 		H 		0.02802
H 1.0  		0.4256287879608327 		0.32216115418588676  0.3000509467367349 		Uiso   ? 		H 		0.02805
H 1.0  		0.42477377935256155 		0.8249092158209835  0.30216199936386945 		Uiso   ? 		H 		0.02805
H 1.0  		0.9285296083199247 		0.3275591323976838  0.30497673620004895 		Uiso   ? 		H 		0.02805
H 1.0  		0.9274685860162124 		0.8256453037589558  0.299487999369499 		Uiso   ? 		H 		0.02805
H 1.0  		0.4300274367168698 		0.10231622337815291  0.14298863127791867 		Uiso   ? 		H 		0.02803
H 1.0  		0.43057004890145667 		0.6053096476592404  0.1458033681140982 		Uiso   ? 		H 		0.02803
H 1.0  		0.9287747405197082 		0.10280694867013446  0.15030694705198538 		Uiso   ? 		H 		0.02803
H 1.0  		0.9274771563210823 		0.6021199332613604  0.15199578915369308 		Uiso   ? 		H 		0.02803
H 1.0  		0.42336338391498274 		0.09323780547649427  0.2973769467423643 		Uiso   ? 		H 		0.02805
H 1.0  		0.42932565606695233 		0.5994209441554619  0.3059618940927118 		Uiso   ? 		H 		0.02805
H 1.0  		0.9334911912792381 		0.10501521248405143  0.2975176835841733 		Uiso   ? 		H 		0.02805
H 1.0  		0.92685495990383 		0.599175581509471  0.29343631517171304 		Uiso   ? 		H 		0.02805
H 1.0  		0.20200788656158863 		0.09888114633428208  0.14946252600113152 		Uiso   ? 		H 		0.02802
H 1.0  		0.2012426883667661 		0.6013838453233881  0.14552189443048022 		Uiso   ? 		H 		0.02802
H 1.0  		0.6999380990205413 		0.09986259691824517  0.1486181049502777 		Uiso   ? 		H 		0.02802
H 1.0  		0.7010107760629721 		0.5996663068014526  0.14608484179771614 		Uiso   ? 		H 		0.02802
H 1.0  		0.20186113508012346 		0.09986259691824517  0.3030064204147233 		Uiso   ? 		H 		0.02805
H 1.0  		0.2014857267385684 		0.5954951418196095  0.2965325256915105 		Uiso   ? 		H 		0.02805
H 1.0  		0.7007792620870115 		0.09814505839630976  0.2979398941096002 		Uiso   ? 		H 		0.02805
H 1.0  		0.7017709263388415 		0.5999116694474433  0.29568810464065665 		Uiso   ? 		H 		0.02805
H 1.0  		0.36702646243410136 		0.3783492001177741  0.22194199953275368 		Uiso   ? 		H 		0.10546
H 1.0  		0.3710499301665614 		0.8793797232309354  0.22208273637456266 		Uiso   ? 		H 		0.10546
H 1.0  		0.8705471580644861 		0.3803121012857003  0.22391231531807934 		Uiso   ? 		H 		0.10546
H 1.0  		0.8723559136602023 		0.8815879870448523  0.22433452584350627 		Uiso   ? 		H 		0.10546
H 1.0  		0.36938792605231047 		0.3771223868878202  0.3761895781553904 		Uiso   ? 		H 		0.10670
H 1.0  		0.3679042445498986 		0.8815879870448523  0.37787842025709806 		Uiso   ? 		H 		0.10670
H 1.0  		0.8705559556873339 		0.3820296398076357  0.378441367624334 		Uiso   ? 		H 		0.10670
H 1.0  		0.8700995345551781 		0.8796250858769261  0.3795672623588058 		Uiso   ? 		H 		0.10670
H 1.0  		0.2203426508198841 		0.06330356266561979  0.2060387364083395 		Uiso   ? 		H 		0.11404
H 1.0  		0.21841639372711735 		0.5643340857787811  0.20477210483205874 		Uiso   ? 		H 		0.11404
H 1.0  		0.7162859154141585 		0.06158602414368437  0.2043498943066318 		Uiso   ? 		H 		0.11404
H 1.0  		0.7189687034217771 		0.5616350966728826  0.2061794732501485 		Uiso   ? 		H 		0.11404
H 1.0  		0.03862383435381481 		0.1562960054961233  0.22616410478702295 		Uiso   ? 		H 		0.10546
H 1.0  		0.04175567442867667 		0.6551182647953676  0.22208273637456266 		Uiso   ? 		H 		0.10546
H 1.0  		0.5394543729116685 		0.15457846697418787  0.22264568374179858 		Uiso   ? 		H 		0.10546
H 1.0  		0.5426454752005062 		0.65904406713122  0.2225049468999896 		Uiso   ? 		H 		0.10546
H 1.0  		0.03886039624872863 		0.15506919226616941  0.3754858939463455 		Uiso   ? 		H 		0.10665
H 1.0  		0.0395409622919326 		0.6553636274413583  0.37731547288986217 		Uiso   ? 		H 		0.10665
H 1.0  		0.5384247913954531 		0.15506919226616941  0.378300630782525 		Uiso   ? 		H 		0.10665
H 1.0  		0.544124108783965 		0.6573265286092845  0.37576736762996343 		Uiso   ? 		H 		0.10665
H 1.0  		0.3919947312948111 		0.357738737854549  0.22264568374179858 		Uiso   ? 		H 		0.10546
H 1.0  		0.39011661764721295 		0.8563156345078027  0.22081610479828187 		Uiso   ? 		H 		0.10546
H 1.0  		0.8907091657522175 		0.357738737854549  0.2248974732107422 		Uiso   ? 		H 		0.10546
H 1.0  		0.8948071697983898 		0.8614682500736089  0.22320863110903447 		Uiso   ? 		H 		0.10546
H 1.0  		0.3913067961866945 		0.35381293551869664  0.378159893940716 		Uiso   ? 		H 		0.10669
H 1.0  		0.3876084025475387 		0.8585238983217196  0.37801915709890704 		Uiso   ? 		H 		0.10669
H 1.0  		0.8904726038573036 		0.35896555108450295  0.3777376834152891 		Uiso   ? 		H 		0.10669
H 1.0  		0.8908420716918815 		0.8577878103837473  0.3777376834152891 		Uiso   ? 		H 		0.10669
H 1.0  		0.21990007522952926 		0.05986848562174895  0.3604270518727852 		Uiso   ? 		H 		0.11542
H 1.0  		0.21855434758573464 		0.5616350966728826  0.3605677887145941 		Uiso   ? 		H 		0.11542
H 1.0  		0.7297626066843677 		0.0613406614976936  0.3650713676524813 		Uiso   ? 		H 		0.11542
H 1.0  		0.7163859520083906 		0.561144371380901  0.3576123150366056 		Uiso   ? 		H 		0.11542
H 1.0  		0.1711407307687807 		0.034596133084699186  0.22306789426722548 		Uiso   ? 		H 		0.10546
H 1.0  		0.17201619173861848 		0.5314554912160173  0.22503821005255115 		Uiso   ? 		H 		0.10546
H 1.0  		0.6683742104967689 		0.029934242810874475  0.2264455784706409 		Uiso   ? 		H 		0.10546
H 1.0  		0.6668729337486612 		0.5309647659240359  0.22349010479265244 		Uiso   ? 		H 		0.10546
H 1.0  		0.17190735752153863 		0.03017960545686525  0.3770339992062442 		Uiso   ? 		H 		0.10672
H 1.0  		0.16857468201306597 		0.5292472274021004  0.3805524202514686 		Uiso   ? 		H 		0.10672
H 1.0  		0.6752813016704583 		0.033123957208754544  0.3787228413079519 		Uiso   ? 		H 		0.10672
H 1.0  		0.6671993060570236 		0.5294925900480911  0.3766117886808173 		Uiso   ? 		H 		0.10672
H 1.0  		0.1663475362085683 		0.135930905878889  0.22503821005255115 		Uiso   ? 		H 		0.10679
H 1.0  		0.16756696473246438 		0.6347531651781334  0.22433452584350627 		Uiso   ? 		H 		0.10679
H 1.0  		0.663843970700014 		0.1351948179409167  0.22222347321637162 		Uiso   ? 		H 		0.10679
H 1.0  		0.6671401575020367 		0.6364707037000688  0.22588263110340498 		Uiso   ? 		H 		0.10679
H 1.0  		0.16925665993031733 		0.1349494552949259  0.37801915709890704 		Uiso   ? 		H 		0.10712
H 1.0  		0.17209499704224893 		0.6357346157620964  0.37787842025709806 		Uiso   ? 		H 		0.10712
H 1.0  		0.6678067476605627 		0.13249582883501818  0.3763303149971993 		Uiso   ? 		H 		0.10712
H 1.0  		0.6701150199146502 		0.6364707037000688  0.37858210446614293 		Uiso   ? 		H 		0.10712
H 1.0  		0.3900894781746679 		1.028805574639317  0.22180126269094472 		Uiso   ? 		H 		0.10679
H 1.0  		0.39355363106486935 		0.531700853862008  0.22405305215988833 		Uiso   ? 		H 		0.10679
H 1.0  		0.8918445137355521 		1.0297870252232801  0.22222347321637162 		Uiso   ? 		H 		0.10679
H 1.0  		0.8913940331103734 		0.532927667091962  0.22447526268531523 		Uiso   ? 		H 		0.10679
H 1.0  		0.38580680538264506 		1.0283148493473353  0.38083389393508654 		Uiso   ? 		H 		0.10708
H 1.0  		0.3895227942674968 		0.5270389635881834  0.38013020972604167 		Uiso   ? 		H 		0.10708
H 1.0  		0.8924579125299563 		1.031013838453234  0.37562663078815445 		Uiso   ? 		H 		0.10708
H 1.0  		0.8906973003794088 		0.5272843262341742  0.37801915709890704 		Uiso   ? 		H 		0.10708
H 1.0  		0.14462356100081797 		0.15580528020414175  0.2236308416344614 		Uiso   ? 		H 		0.10679
H 1.0  		0.1481979766660347 		0.6580626165472568  0.2236308416344614 		Uiso   ? 		H 		0.10679
H 1.0  		0.6448999629782433 		0.15850426931004025  0.22166052584913573 		Uiso   ? 		H 		0.10679
H 1.0  		0.6491447185058807 		0.6612523309451369  0.22461599952712422 		Uiso   ? 		H 		0.10679
H 1.0  		0.14741880258653406 		0.1562960054961233  0.378159893940716 		Uiso   ? 		H 		0.10710
H 1.0  		0.14851555135154926 		0.6548729021493769  0.37731547288986217 		Uiso   ? 		H 		0.10710
H 1.0  		0.6473993804550696 		0.15457846697418787  0.37858210446614293 		Uiso   ? 		H 		0.10710
H 1.0  		0.6482442932254346 		0.6573265286092845  0.378441367624334 		Uiso   ? 		H 		0.10710
H 1.0  		0.0430206165998486 		0.38055746393169104  0.22475673636893317 		Uiso   ? 		H 		0.10679
H 1.0  		0.040016634545697705 		0.8845323387967416  0.22377157847627038 		Uiso   ? 		H 		0.10679
H 1.0  		0.5348936985744299 		0.3783492001177741  0.22447526268531523 		Uiso   ? 		H 		0.10679
H 1.0  		0.5406675522766542 		0.8833055255667878  0.22672705215425884 		Uiso   ? 		H 		0.10679
H 1.0  		0.04035685239586126 		0.3820296398076357  0.378300630782525 		Uiso   ? 		H 		0.10708
H 1.0  		0.038870849747490055 		0.8801158111689078  0.3787228413079519 		Uiso   ? 		H 		0.10708
H 1.0  		0.536063555095222 		0.38153891451565414  0.3790043149915699 		Uiso   ? 		H 		0.10708
H 1.0  		0.5391537282018037 		0.8781529100009816  0.3790043149915699 		Uiso   ? 		H 		0.10708
H 1.0  		0.3685605762026076 		0.30449504367455105  0.2061794732501485 		Uiso   ? 		H 		0.11404
H 1.0  		0.3655542730024974 		0.8020904897438415  0.20800905219366517 		Uiso   ? 		H 		0.11404
H 1.0  		0.8664731934158644 		0.3020414172146433  0.20969789429537286 		Uiso   ? 		H 		0.11404
H 1.0  		0.8680782564620988 		0.8050348414957308  0.20857199956090106 		Uiso   ? 		H 		0.11404
H 1.0  		0.3934601846065149 		0.14010207086073218  0.2213790521655178 		Uiso   ? 		H 		0.03151
H 1.0  		0.39195658671244776 		0.6347531651781334  0.22349010479265244 		Uiso   ? 		H 		0.03151
H 1.0  		0.8979118537168185 		0.14010207086073218  0.22222347321637162 		Uiso   ? 		H 		0.03151
H 1.0  		0.8866489819953295 		0.6318088134262441  0.22278642058360754 		Uiso   ? 		H 		0.03151
H 1.0  		0.39646791636456047 		0.14059279615271372  0.3788635781497609 		Uiso   ? 		H 		0.03196
H 1.0  		0.38546567826056954 		0.6298459122583179  0.3792857886751878 		Uiso   ? 		H 		0.03196
H 1.0  		0.8898677753677692 		0.1342133673569536  0.3767525255226263 		Uiso   ? 		H 		0.03196
H 1.0  		0.8773693084346236 		0.6217489449406223  0.3764710518390083 		Uiso   ? 		H 		0.03196
H 1.0  		0.3850417041629235 		0.25076062420257145  0.22433452584350627 		Uiso   ? 		H 		0.03151
H 1.0  		0.39041464924307306 		0.7544901364216313  0.22377157847627038 		Uiso   ? 		H 		0.03151
H 1.0  		0.8858986355893209 		0.25419570124644225  0.22292715742541652 		Uiso   ? 		H 		0.03151
H 1.0  		0.9014775854181765 		0.7532633231916773  0.22616410478702295 		Uiso   ? 		H 		0.03151
H 1.0  		0.39791379426157614 		0.2510059868485622  0.378159893940716 		Uiso   ? 		H 		0.03198
H 1.0  		0.3837529175871453 		0.7517911473157327  0.3777376834152891 		Uiso   ? 		H 		0.03198
H 1.0  		0.8913576413790243 		0.25321425066247916  0.3775969465734801 		Uiso   ? 		H 		0.03198
H 1.0  		0.8997031277258278 		0.7505643340857788  0.3790043149915699 		Uiso   ? 		H 		0.03198
H 1.0  		0.27390043275274256 		0.13642163117087058  0.22208273637456266 		Uiso   ? 		H 		0.03151
H 1.0  		0.2769383070832266 		0.6465305721856904  0.22334936795084342 		Uiso   ? 		H 		0.03151
H 1.0  		0.7732018731360094 		0.13249582883501818  0.22405305215988833 		Uiso   ? 		H 		0.03151
H 1.0  		0.7702941779721957 		0.6315634507802532  0.22517894689436013 		Uiso   ? 		H 		0.03151
H 1.0  		0.2760869178359731 		0.1484444008244185  0.37801915709890704 		Uiso   ? 		H 		0.03201
H 1.0  		0.2742370312418883 		0.6347531651781334  0.378300630782525 		Uiso   ? 		H 		0.03201
H 1.0  		0.774976330828358 		0.1351948179409167  0.378441367624334 		Uiso   ? 		H 		0.03201
H 1.0  		0.7746161965865394 		0.6278830110903917  0.3775969465734801 		Uiso   ? 		H 		0.03201
H 1.0  		0.3640959614377281 		0.2981156148787909  0.36127147292363904 		Uiso   ? 		H 		0.11540
H 1.0  		0.37269144959421213 		0.8087152811855923  0.35930115713831334 		Uiso   ? 		H 		0.11540
H 1.0  		0.8601049647228669 		0.29737952694081854  0.3646491571270544 		Uiso   ? 		H 		0.11540
H 1.0  		0.8706938772209176 		0.8060162920796939  0.3625381044999198 		Uiso   ? 		H 		0.11540
H 1.0  		0.1484574090435754 		0.3827657277456081  0.22517894689436013 		Uiso   ? 		H 		0.03151
H 1.0  		0.14253966097575677 		0.8749631956031014  0.22349010479265244 		Uiso   ? 		H 		0.03151
H 1.0  		0.6392985883559817 		0.3746687604279125  0.22391231531807934 		Uiso   ? 		H 		0.03151
H 1.0  		0.6361126643289743 		0.8727549317891845  0.2236308416344614 		Uiso   ? 		H 		0.03151
H 1.0  		0.15923978791032434 		0.38988124447934047  0.3770339992062442 		Uiso   ? 		H 		0.03198
H 1.0  		0.14804265487969964 		0.8825694376288155  0.378159893940716 		Uiso   ? 		H 		0.03198
H 1.0  		0.6344242673461796 		0.3653449798802631  0.37731547288986217 		Uiso   ? 		H 		0.03198
H 1.0  		0.647131605090637 		0.8786436352929631  0.3791450518333788 		Uiso   ? 		H 		0.03198
H 1.0  		0.2630400765203199 		0.38669153008146046  0.22433452584350627 		Uiso   ? 		H 		0.03151
H 1.0  		0.2640270984802313 		0.8756992835410737  0.22503821005255115 		Uiso   ? 		H 		0.03151
H 1.0  		0.7638136740101572 		0.38571007949749736  0.22447526268531523 		Uiso   ? 		H 		0.03151
H 1.0  		0.7646081221893941 		0.8845323387967416  0.22334936795084342 		Uiso   ? 		H 		0.03151
H 1.0  		0.25969668787007427 		0.36215526548238297  0.37717473604805324 		Uiso   ? 		H 		0.03190
H 1.0  		0.2613850848528689 		0.8695652173913044  0.3767525255226263 		Uiso   ? 		H 		0.03190
H 1.0  		0.7619429294274715 		0.3879183433114143  0.3763303149971993 		Uiso   ? 		H 		0.03190
H 1.0  		0.7662358284002775 		0.8882127784866033  0.3775969465734801 		Uiso   ? 		H 		0.03190
H 1.0  		0.15160945747813775 		0.2632741191481009  0.22433452584350627 		Uiso   ? 		H 		0.03151
H 1.0  		0.15224835655306182 		0.7613602905093729  0.22349010479265244 		Uiso   ? 		H 		0.03151
H 1.0  		0.6647667471770636 		0.26793600942192564  0.2236308416344614 		Uiso   ? 		H 		0.03151
H 1.0  		0.6430765829116912 		0.7625871037393268  0.22334936795084342 		Uiso   ? 		H 		0.03151
H 1.0  		0.14648562161964476 		0.2645009323780548  0.3760488413135814 		Uiso   ? 		H 		0.03195
H 1.0  		0.13061602594372979 		0.76356855432329  0.3791450518333788 		Uiso   ? 		H 		0.03195
H 1.0  		0.6508058133482196 		0.2625380312101286  0.3761895781553904 		Uiso   ? 		H 		0.03195
H 1.0  		0.647203706599401 		0.7623417410933361  0.37787842025709806 		Uiso   ? 		H 		0.03195
H 1.0  		0.2906748040329771 		0.28216704288939054  0.12624094710265063 		Uiso   ? 		H 		0.13286
H 1.0  		0.294395971179659 		0.7834429286485426  0.1282112628879763 		Uiso   ? 		H 		0.13286
H 1.0  		0.7963949377003694 		0.2868289331632153  0.1310259997241558 		Uiso   ? 		H 		0.13286
H 1.0  		0.794483954707339 		0.7849151045244872  0.12722610499531348 		Uiso   ? 		H 		0.13286
H 1.0  		0.28703607823483135 		0.2770144273235843  0.27879968362357965 		Uiso   ? 		H 		0.13278
H 1.0  		0.2909215921086742 		0.7807439395426441  0.28189589414337707 		Uiso   ? 		H 		0.13278
H 1.0  		0.7943751204902592 		0.28363921876533515  0.28259957835242194 		Uiso   ? 		H 		0.13278
H 1.0  		0.7908364312863454 		0.7780449504367455  0.2806292625670963 		Uiso   ? 		H 		0.13278
H 1.0  		0.243970288964674 		1.0077043870841105  0.1276483155207404 		Uiso   ? 		H 		0.13286
H 1.0  		0.246902055851072 		0.5074099519089215  0.12581873657722373 		Uiso   ? 		H 		0.13286
H 1.0  		0.7416616183827534 		1.0035332221022673  0.12792978920435835 		Uiso   ? 		H 		0.13286
H 1.0  		0.7479955491723832 		0.5096182157228384  0.12610021026084167 		Uiso   ? 		H 		0.13286
H 1.0  		0.24651137340978035 		1.0059868485621748  0.2806292625670963 		Uiso   ? 		H 		0.13279
H 1.0  		0.24656688591986162 		0.5071645892629307  0.282458841510613 		Uiso   ? 		H 		0.13279
H 1.0  		0.7493770032774809 		1.0045146726862304  0.2800663151998604 		Uiso   ? 		H 		0.13279
H 1.0  		0.7480677643401361 		0.5059377760329767  0.27964410467443346 		Uiso   ? 		H 		0.13279
H 1.0  		0.01956276308706144 		0.23971930513298656  0.12624094710265063 		Uiso   ? 		H 		0.13286
H 1.0  		1.0219284779685571 		0.7353518500343508  0.12877421025521218 		Uiso   ? 		H 		0.13286
H 1.0  		0.5169101249510825 		0.2335852389832172  0.12792978920435835 		Uiso   ? 		H 		0.13286
H 1.0  		0.5210715465421598 		0.73191677299048  0.129900104989684 		Uiso   ? 		H 		0.13286
H 1.0  		0.018204488116524073 		0.23530277750515263  0.28189589414337707 		Uiso   ? 		H 		0.13279
H 1.0  		1.0197137658318134 		0.7355972126803416  0.27978484151624244 		Uiso   ? 		H 		0.13279
H 1.0  		0.5209233665027593 		0.23481205221317109  0.28231810466880397 		Uiso   ? 		H 		0.13279
H 1.0  		0.5217289334508036 		0.741731278830111  0.27753305204729883 		Uiso   ? 		H 		0.13279
H 1.0  		0.298063816619342 		0.28462066934929825  0.16311399965660212 		Uiso   ? 		H 		0.13289
H 1.0  		0.2932437099045626 		0.7836882912945333  0.16353621018202902 		Uiso   ? 		H 		0.13289
H 1.0  		0.796173649905192 		0.2851113946412798  0.16353621018202902 		Uiso   ? 		H 		0.13289
H 1.0  		0.7923173860157636 		0.7827068407105703  0.16395842070745598 		Uiso   ? 		H 		0.13289
H 1.0  		0.2932816271689479 		0.28143095495141823  0.31778378880466573 		Uiso   ? 		H 		0.13299
H 1.0  		0.2931122325228339 		0.7817253901266071  0.31778378880466573 		Uiso   ? 		H 		0.13299
H 1.0  		0.7897966235893467 		0.2787319658455197  0.32003557827360934 		Uiso   ? 		H 		0.13299
H 1.0  		0.7932812288411147 		0.7812346648346257  0.32003557827360934 		Uiso   ? 		H 		0.13299
H 1.0  		0.25001862182619755 		1.009176562960055  0.16818052596172522 		Uiso   ? 		H 		0.13289
H 1.0  		0.24141897833878423 		0.5096182157228384  0.16381768386564696 		Uiso   ? 		H 		0.13289
H 1.0  		0.7443605730781322 		1.0089312003140642  0.1648028417583098 		Uiso   ? 		H 		0.13289
H 1.0  		0.745583620963046 		0.5069192266169399  0.16747684175268032 		Uiso   ? 		H 		0.13289
H 1.0  		0.2419351976548274 		1.0074590244381196  0.3169393677538118 		Uiso   ? 		H 		0.13299
H 1.0  		0.24324157947630132 		0.5098635783688291  0.31848747301371055 		Uiso   ? 		H 		0.13299
H 1.0  		0.7459947557659041 		1.007949749730101  0.31989484143180036 		Uiso   ? 		H 		0.13299
H 1.0  		0.7446767192057115 		0.5076553145549122  0.31989484143180036 		Uiso   ? 		H 		0.13299
H 1.0  		0.018776219942648317 		0.23432132692118954  0.16578799965097263 		Uiso   ? 		H 		0.13289
H 1.0  		1.0225594720086573 		0.7400137403081756  0.1666324207018265 		Uiso   ? 		H 		0.13289
H 1.0  		0.5213812161928505 		0.23530277750515263  0.16508431544192775 		Uiso   ? 		H 		0.13289
H 1.0  		0.5157921615793537 		0.7324074982824615  0.16677315754363548 		Uiso   ? 		H 		0.13289
H 1.0  		0.017279991113493695 		0.2326037883992541  0.31806526248828365 		Uiso   ? 		H 		0.13299
H 1.0  		1.01871705366103 		0.7365786632643047  0.32130220984989005 		Uiso   ? 		H 		0.13299
H 1.0  		0.5161740463977974 		0.23211306310727256  0.32003557827360934 		Uiso   ? 		H 		0.13299
H 1.0  		0.5215076456556262 		0.7400137403081756  0.321865157217126 		Uiso   ? 		H 		0.13299
H 1.0  		0.07085109930212982 		0.20757679850819513  0.2077275785100472 		Uiso   ? 		H 		0.11404
H 1.0  		0.07295983433766473 		0.7022278928255963  0.20012778905236253 		Uiso   ? 		H 		0.11404
H 1.0  		0.5742819845190659 		0.20978506232211208  0.2067424206173844 		Uiso   ? 		H 		0.11404
H 1.0  		0.5720622244633687 		0.7127784866031995  0.20758684166823824 		Uiso   ? 		H 		0.11404
H 1.0  		0.245021312405581 		0.23505741485916185  0.12792978920435835 		Uiso   ? 		H 		0.13362
H 1.0  		0.2462407409294771 		0.7338796741584062  0.12905568393883016 		Uiso   ? 		H 		0.13362
H 1.0  		0.7462286878629252 		0.23579350279713418  0.12863347341340323 		Uiso   ? 		H 		0.13362
H 1.0  		0.7485193648713169 		0.7363333006183139  0.12553726289360576 		Uiso   ? 		H 		0.13362
H 1.0  		0.24397413564366977 		0.23211306310727256  0.28316252571965783 		Uiso   ? 		H 		0.13392
H 1.0  		0.2428802439945254 		0.729708509176563  0.28231810466880397 		Uiso   ? 		H 		0.13392
H 1.0  		0.7410784591358885 		0.23186770046128177  0.2833032625614668 		Uiso   ? 		H 		0.13392
H 1.0  		0.7444491822516236 		0.7358425753263325  0.2816144204597591 		Uiso   ? 		H 		0.13392
H 1.0  		0.29288469556874586 		1.0099126508980272  0.1265224207862686 		Uiso   ? 		H 		0.13363
H 1.0  		0.2942304232125406 		0.5081460398468938  0.13032231551511092 		Uiso   ? 		H 		0.13363
H 1.0  		0.7933559924728051 		1.009176562960055  0.12835199972978528 		Uiso   ? 		H 		0.13363
H 1.0  		0.7952822495655718 		0.5081460398468938  0.129900104989684 		Uiso   ? 		H 		0.13363
H 1.0  		0.2885034147404266 		1.007949749730101  0.2780959994145347 		Uiso   ? 		H 		0.13393
H 1.0  		0.2939193250039145 		0.506673863970949  0.28344399940327575 		Uiso   ? 		H 		0.13393
H 1.0  		0.7968039786752461 		1.0067229365001473  0.28231810466880397 		Uiso   ? 		H 		0.13393
H 1.0  		0.7962220206683385 		0.5079006772009029  0.28428842045412966 		Uiso   ? 		H 		0.13393
H 1.0  		0.01921097183213462 		0.28363921876533515  0.1269446313116955 		Uiso   ? 		H 		0.13363
H 1.0  		1.0173926219579041 		0.7802532142506626  0.12736684183712244 		Uiso   ? 		H 		0.13363
H 1.0  		0.5220766016998349 		0.28216704288939054  0.12877421025521218 		Uiso   ? 		H 		0.13363
H 1.0  		0.5180735863289414 		0.7807439395426441  0.1269446313116955 		Uiso   ? 		H 		0.13363
H 1.0  		0.07002288918943658 		0.1999705564824811  0.3540938939913813 		Uiso   ? 		H 		0.11541
H 1.0  		0.07023265258877243 		0.709098046913338  0.36225663081630183 		Uiso   ? 		H 		0.11541
H 1.0  		0.5694669257232395 		0.20610462263225046  0.3604270518727852 		Uiso   ? 		H 		0.11541
H 1.0  		0.5746931193219239 		0.7108155854352733  0.36127147292363904 		Uiso   ? 		H 		0.11541
H 1.0  		0.017879089730140962 		0.2843753067033075  0.28259957835242194 		Uiso   ? 		H 		0.13393
H 1.0  		1.0190925433365405 		0.7802532142506626  0.2806292625670963 		Uiso   ? 		H 		0.13393
H 1.0  		0.518683235419451 		0.27750515261556585  0.2802070520416694 		Uiso   ? 		H 		0.13393
H 1.0  		0.5199707237801708 		0.7836882912945333  0.282458841510613 		Uiso   ? 		H 		0.13393
H 1.0  		0.24942666495648463 		0.23579350279713418  0.16578799965097263 		Uiso   ? 		H 		0.13402
H 1.0  		0.24551345999903984 		0.734125036804397  0.16536578912554573 		Uiso   ? 		H 		0.13402
H 1.0  		0.7462286878629252 		0.23579350279713418  0.16592873649278161 		Uiso   ? 		H 		0.13402
H 1.0  		0.7435487569711774 		0.73191677299048  0.16269178913117519 		Uiso   ? 		H 		0.13402
H 1.0  		0.24302556691805505 		0.23064088723132792  0.3197541045899913 		Uiso   ? 		H 		0.13360
H 1.0  		0.2492572703103706 		0.7360879379723232  0.3211614730080811 		Uiso   ? 		H 		0.13360
H 1.0  		0.744250537621095 		0.23481205221317109  0.31989484143180036 		Uiso   ? 		H 		0.13360
H 1.0  		0.7469661949741457 		0.7353518500343508  0.3189096835391375 		Uiso   ? 		H 		0.13360
H 1.0  		0.3378540987670212 		0.27750515261556585  -0.0474283156896246 		Uiso   ? 		H 		0.03178
H 1.0  		0.33144331051771975 		0.7623417410933361  -0.04953936831675922 		Uiso   ? 		H 		0.03178
H 1.0  		0.8353658073582032 		0.27382471292570426  -0.0479912630568605 		Uiso   ? 		H 		0.03178
H 1.0  		0.8314109354324783 		0.76994798311905  -0.046724631480579724 		Uiso   ? 		H 		0.03178
H 1.0  		0.28297566715996536 		0.3258415938757484  -0.05038378936761308 		Uiso   ? 		H 		0.03179
H 1.0  		0.2782935143038032 		0.8222102267150849  -0.04841347358228742 		Uiso   ? 		H 		0.03179
H 1.0  		0.7879837939966567 		0.3278044950436746  -0.04545799990429895 		Uiso   ? 		H 		0.03179
H 1.0  		0.7771130332743946 		0.819020512317205  -0.050102315683995126 		Uiso   ? 		H 		0.03179
H 1.0  		0.1984970834342213 		0.24315438217685742  -0.04827273674047845 		Uiso   ? 		H 		0.03039
H 1.0  		0.205940310315609 		0.7539994111296496  -0.05404294725464643 		Uiso   ? 		H 		0.03039
H 1.0  		0.7126862757953221 		0.25370497595446073  -0.04953936831675922 		Uiso   ? 		H 		0.03039
H 1.0  		0.7135159144659506 		0.7593973893414467  -0.05235410515293873 		Uiso   ? 		H 		0.03039
H 1.0  		0.2636102338044861 		0.20168809500441653  -0.04869494726590537 		Uiso   ? 		H 		0.03040
H 1.0  		0.2668582771613403 		0.7054176072234764  -0.04869494726590537 		Uiso   ? 		H 		0.03040
H 1.0  		0.7657092369194284 		0.20463244675630582  -0.04785052621505153 		Uiso   ? 		H 		0.03040
H 1.0  		0.759184566534094 		0.6909412111100206  -0.050102315683995126 		Uiso   ? 		H 		0.03040
H 1.0  		0.2789037640142914 		0.45539307095887727  -0.04953936831675922 		Uiso   ? 		H 		0.03045
H 1.0  		0.2807453889554397 		0.9571596820100108  -0.04925789463314127 		Uiso   ? 		H 		0.03045
H 1.0  		0.7750595187808955 		0.4536755324369418  -0.04996157884218615 		Uiso   ? 		H 		0.03045
H 1.0  		0.7837424962048688 		0.9576504073019925  -0.04869494726590537 		Uiso   ? 		H 		0.03045
H 1.0  		0.2944290678430692 		1.009176562960055  0.00942936840120133 		Uiso   ? 		H 		0.13934
H 1.0  		0.29499937111125796 		0.51010894101482  0.010133052610246204 		Uiso   ? 		H 		0.13934
H 1.0  		0.7917042145393374 		1.0067229365001473  0.010695999977482105 		Uiso   ? 		H 		0.13934
H 1.0  		0.796165079600322 		0.5086367651388752  0.011258947344718006 		Uiso   ? 		H 		0.13934
H 1.0  		0.02067433131585704 		0.2848660319952891  0.00971084208481928 		Uiso   ? 		H 		0.13933
H 1.0  		1.0181944392020537 		0.7827068407105703  0.011540421028335957 		Uiso   ? 		H 		0.13933
H 1.0  		0.5205475035252481 		0.27995877907547356  0.01083673681929108 		Uiso   ? 		H 		0.13933
H 1.0  		0.5165380116774663 		0.7831975660025519  0.00858494735034748 		Uiso   ? 		H 		0.13933
H 1.0  		0.14712979593149988 		0.48508195112376096  0.06853884196097086 		Uiso   ? 		H 		0.10635
H 1.0  		0.14629006142296502 		0.9848856610069684  0.06699073670107213 		Uiso   ? 		H 		0.10635
H 1.0  		0.6434739691478492 		0.48459122583177944  0.06628705249202725 		Uiso   ? 		H 		0.10635
H 1.0  		0.6466474761909912 		0.9856217489449408  0.06952399985363368 		Uiso   ? 		H 		0.10635
H 1.0  		0.4992474210811885 		0.1396113455687506  0.06980547353725164 		Uiso   ? 		H 		0.10635
H 1.0  		0.49686331429833047 		0.6401511433899304  0.06867957880277983 		Uiso   ? 		H 		0.10635
H 1.0  		1.0002071158748116 		0.13347727941898127  0.06924252617001574 		Uiso   ? 		H 		0.10635
H 1.0  		0.9952819246468472 		0.6357346157620964  0.06980547353725164 		Uiso   ? 		H 		0.10635
H 1.0  		0.22523857642228853 		0.3790852880557464  -0.07036842090448754 		Uiso   ? 		H 		0.41443
H 1.0  		0.2257483192614432 		0.8815879870448523  -0.07191652616438626 		Uiso   ? 		H 		0.41443
H 1.0  		0.7435696796098457 		0.36264599077436455  -0.07304242089885807 		Uiso   ? 		H 		0.41443
H 1.0  		0.7250016161995416 		0.8801158111689078  -0.07473126300056576 		Uiso   ? 		H 		0.41443
H 1.0  		0.3172967986711132 		0.3592109137304937  0.05263557883655667 		Uiso   ? 		H 		0.11421
H 1.0  		0.31646586178542624 		0.8607321621356365  0.05207263146932078 		Uiso   ? 		H 		0.11421
H 1.0  		0.8103526901202636 		0.35086858376680735  0.0541836840964554 		Uiso   ? 		H 		0.11421
H 1.0  		0.8221771978299708 		0.8636765138875259  0.0485542104240964 		Uiso   ? 		H 		0.11421
H 1.0  		0.3741285621934135 		0.4907252919815488  0.07079063142991446 		Uiso   ? 		H 		0.10701
H 1.0  		0.36822840937129064 		0.9863578368829129  0.06938326301182471 		Uiso   ? 		H 		0.10701
H 1.0  		0.8730466892003016 		0.4890077534596134  0.06910178932820676 		Uiso   ? 		H 		0.10701
H 1.0  		0.8669669155512814 		0.9851310236529591  0.07008694722086958 		Uiso   ? 		H 		0.10701
H 1.0  		0.5027285039470398 		0.36289135342035533  0.06952399985363368 		Uiso   ? 		H 		0.10701
H 1.0  		0.5008351161997052 		0.8644126018254982  0.06924252617001574 		Uiso   ? 		H 		0.10701
H 1.0  		0.9969149060946616 		0.36190990283639224  0.07050915774629651 		Uiso   ? 		H 		0.10701
H 1.0  		0.9951747463056806 		0.8577878103837473  0.06797589459373496 		Uiso   ? 		H 		0.10701
H 1.0  		0.17001898536812352 		0.45563843360486805  0.08556799981985684 		Uiso   ? 		H 		0.11492
H 1.0  		0.1622897549315951 		0.9556875061340663  0.08697536823794659 		Uiso   ? 		H 		0.11492
H 1.0  		0.6614999563434779 		0.45392089508293265  0.08880494718146327 		Uiso   ? 		H 		0.11492
H 1.0  		0.6675256460403525 		0.9547060555501031  0.0852865261362389 		Uiso   ? 		H 		0.11492
H 1.0  		0.46672163757602375 		0.16635587398174503  0.08261252614186836 		Uiso   ? 		H 		0.11491
H 1.0  		0.4658050456078173 		0.6570811659632938  0.08711610507975556 		Uiso   ? 		H 		0.11491
H 1.0  		0.9649583059516837 		0.1560506428501325  0.08950863139050814 		Uiso   ? 		H 		0.11491
H 1.0  		0.9644296696517749 		0.6573265286092845  0.08711610507975556 		Uiso   ? 		H 		0.11491
H 1.0  		0.1622137900599474 		0.45490234566689575  0.047006105164197676 		Uiso   ? 		H 		0.11422
H 1.0  		0.16420216648256092 		0.9556875061340663  0.049820842000377175 		Uiso   ? 		H 		0.11422
H 1.0  		0.669583380514848 		0.45563843360486805  0.05347999988741053 		Uiso   ? 		H 		0.11422
H 1.0  		0.6703537569715008 		0.9556875061340663  0.054746631463691305 		Uiso   ? 		H 		0.11422
H 1.0  		0.1501586776461917 		0.3415448032191579  -0.07093136827172343 		Uiso   ? 		H 		0.41439
H 1.0  		0.15143736838406363 		0.84601040337619  -0.07050915774629651 		Uiso   ? 		H 		0.41439
H 1.0  		0.6898166294483528 		0.381784277161645  -0.07332389458247601 		Uiso   ? 		H 		0.41439
H 1.0  		0.6509929659079402 		0.8442928648542546  -0.07107210511353242 		Uiso   ? 		H 		0.41439
H 1.0  		0.4663489560074624 		0.15286092845225244  0.04756905253143358 		Uiso   ? 		H 		0.11421
H 1.0  		0.4652485878814294 		0.6551182647953676  0.05221336831112975 		Uiso   ? 		H 		0.11421
H 1.0  		0.9655693836001286 		0.15089802728432625  0.0502430525258041 		Uiso   ? 		H 		0.11421
H 1.0  		0.965557859204287 		0.6583079791932477  0.051228210418466924 		Uiso   ? 		H 		0.11421
H 1.0  		0.3140873222075447 		0.45563843360486805  0.08500505245262094 		Uiso   ? 		H 		0.11165
H 1.0  		0.3266279920788817 		0.9601040337619001  0.08993084191593508 		Uiso   ? 		H 		0.11165
H 1.0  		0.8160548479407583 		0.45661988418883115  0.08627168402890172 		Uiso   ? 		H 		0.11165
H 1.0  		0.8256271318763705 		0.9564235940720386  0.09232336822668766 		Uiso   ? 		H 		0.11165
H 1.0  		0.46699399058230784 		0.30842084601040337  0.08739757876337352 		Uiso   ? 		H 		0.11165
H 1.0  		0.4648311715946272 		0.8106781823535185  0.08739757876337352 		Uiso   ? 		H 		0.11165
H 1.0  		0.9655945429036812 		0.30989302188634804  0.08767905244699147 		Uiso   ? 		H 		0.11165
H 1.0  		0.9648140706091223 		0.8153400726273433  0.09190115770126073 		Uiso   ? 		H 		0.11165
H 1.0  		0.32939541223811875 		0.45735597212680346  0.04658389463877075 		Uiso   ? 		H 		0.11069
H 1.0  		0.31758720155904907 		0.9551967808420846  0.053339263045601555 		Uiso   ? 		H 		0.11069
H 1.0  		0.8194787624206151 		0.45539307095887727  0.05347999988741053 		Uiso   ? 		H 		0.11069
H 1.0  		0.8147572637421323 		0.955932868780057  0.05404294725464643 		Uiso   ? 		H 		0.11069
H 1.0  		0.46852308875689463 		0.31062910982432035  0.0502430525258041 		Uiso   ? 		H 		0.11069
H 1.0  		0.4671773611131 		0.812395720875454  0.04897642094952332 		Uiso   ? 		H 		0.11069
H 1.0  		0.9647774515597953 		0.31038374717832956  0.04883568410771435 		Uiso   ? 		H 		0.11069
H 1.0  		0.9661107622197244 		0.8077338306016292  0.05165042094389385 		Uiso   ? 		H 		0.11069
H 1.0  		0.0717908704048966 		0.20733143586220434  0.0892271577068902 		Uiso   ? 		H 		0.11491
H 1.0  		0.0708877183514568 		0.7125331239572088  0.08430136824357606 		Uiso   ? 		H 		0.11491
H 1.0  		0.5730070434850887 		0.20978506232211208  0.08880494718146327 		Uiso   ? 		H 		0.11491
H 1.0  		0.5704761852207655 		0.7113063107272549  0.08514578929442991 		Uiso   ? 		H 		0.11491
H 1.0  		0.3217461393362563 		0.3685346942781431  0.08880494718146327 		Uiso   ? 		H 		0.11491
H 1.0  		0.3138983844717762 		0.8572970850917657  0.08556799981985684 		Uiso   ? 		H 		0.11491
H 1.0  		0.8212359981692685 		0.3658357051722446  0.0892271577068902 		Uiso   ? 		H 		0.11491
H 1.0  		0.8201333088972762 		0.8617136127195997  0.08641242087071069 		Uiso   ? 		H 		0.11491
H 1.0  		0.3085173883727801 		0.1742074786534498  -0.07064989458810549 		Uiso   ? 		H 		0.41436
H 1.0  		0.31503746547511746 		0.6411325939738934  -0.06853884196097086 		Uiso   ? 		H 		0.41436
H 1.0  		0.8146384306622472 		0.1800961821572284  -0.06966473669544267 		Uiso   ? 		H 		0.41436
H 1.0  		0.8168952644032272 		0.6325449013642164  -0.06952399985363368 		Uiso   ? 		H 		0.41436
H 1.0  		0.07014018005239729 		0.36509961723427226  0.08936789454869917 		Uiso   ? 		H 		0.11165
H 1.0  		0.0727813010917357 		0.8629404259495534  0.08739757876337352 		Uiso   ? 		H 		0.11165
H 1.0  		0.5728062727015452 		0.3543036608106782  0.08247178930005938 		Uiso   ? 		H 		0.11165
H 1.0  		0.5730313102006174 		0.8604867994896458  0.08641242087071069 		Uiso   ? 		H 		0.11165
H 1.0  		0.16182096478175284 		0.20634998527824125  0.08725684192156455 		Uiso   ? 		H 		0.11165
H 1.0  		0.16283670075616727 		0.706889783099421  0.08993084191593508 		Uiso   ? 		H 		0.11165
H 1.0  		0.6664129088966331 		0.21003042496810287  0.08725684192156455 		Uiso   ? 		H 		0.11165
H 1.0  		0.6729709845973112 		0.7140052998331535  0.08303473666729529 		Uiso   ? 		H 		0.11165
H 1.0  		0.07055636277420846 		0.3633820787123369  0.05277631567836565 		Uiso   ? 		H 		0.11069
H 1.0  		0.07363126178105378 		0.8629404259495534  0.052917052520174625 		Uiso   ? 		H 		0.11069
H 1.0  		0.5754353333751305 		0.369761507508097  0.04545799990429895 		Uiso   ? 		H 		0.11069
H 1.0  		0.5737433170313182 		0.8631857885955442  0.05066526305123102 		Uiso   ? 		H 		0.11069
H 1.0  		0.16096220646958684 		0.20463244675630582  0.049680105158568195 		Uiso   ? 		H 		0.11069
H 1.0  		0.16718511223905444 		0.7083619589753657  0.052917052520174625 		Uiso   ? 		H 		0.11069
H 1.0  		0.6663559678286166 		0.2107665129060752  0.053339263045601555 		Uiso   ? 		H 		0.11069
H 1.0  		0.663356141105395 		0.7037000687015409  0.04953936831675922 		Uiso   ? 		H 		0.11069
H 1.0  		0.3755326917881937 		0.059623122975758176  0.04841347358228742 		Uiso   ? 		H 		0.11069
H 1.0  		0.3664803768725195 		0.562125821964864  0.05446515778007335 		Uiso   ? 		H 		0.11069
H 1.0  		0.8705537805253972 		0.06158602414368437  0.0519318946275118 		Uiso   ? 		H 		0.11069
H 1.0  		0.8694117454310842 		0.5616350966728826  0.054746631463691305 		Uiso   ? 		H 		0.11069
H 1.0  		0.3772115768691727 		0.3162724506821082  0.09049378928317098 		Uiso   ? 		H 		0.11491
H 1.0  		0.37169473742342884 		0.8096967317695555  0.08781978928880045 		Uiso   ? 		H 		0.11491
H 1.0  		0.8644140303834335 		0.3030228677986064  0.08373842087634016 		Uiso   ? 		H 		0.11491
H 1.0  		0.869786975463583 		0.8067523800176661  0.08219031561644144 		Uiso   ? 		H 		0.11491
H 1.0  		0.2208265200765184 		0.15776818137206794  0.05263557883655667 		Uiso   ? 		H 		0.11069
H 1.0  		0.23010762219515957 		0.6659142212189617  0.056153999881781054 		Uiso   ? 		H 		0.11069
H 1.0  		0.7215672482209234 		0.1562960054961233  0.05530957883092721 		Uiso   ? 		H 		0.11069
H 1.0  		0.718578540266509 		0.6573265286092845  0.05207263146932078 		Uiso   ? 		H 		0.11069
H 1.0  		0.3901539342916196 		0.21763666699381687  -0.07402757879152089 		Uiso   ? 		H 		0.41427
H 1.0  		0.38424314966167905 		0.7289724212385907  -0.07388684194971191 		Uiso   ? 		H 		0.41427
H 1.0  		0.8896437931246317 		0.21493767788791837  -0.07191652616438626 		Uiso   ? 		H 		0.41427
H 1.0  		0.8496466046934876 		0.709098046913338  -0.07191652616438626 		Uiso   ? 		H 		0.41427
H 1.0  		0.37303327431136735 		0.06354892531161056  0.08753831560518249 		Uiso   ? 		H 		0.11165
H 1.0  		0.37470175490250673 		0.561144371380901  0.09021231559955302 		Uiso   ? 		H 		0.11165
H 1.0  		0.8783677734564213 		0.06403965060359211  0.08993084191593508 		Uiso   ? 		H 		0.11165
H 1.0  		0.8718060783947255 		0.5608990087349103  0.08950863139050814 		Uiso   ? 		H 		0.11165
H 1.0  		0.21399164407058185 		0.15089802728432625  0.08936789454869917 		Uiso   ? 		H 		0.11165
H 1.0  		0.2186132364977098 		0.6560997153793307  0.0892271577068902 		Uiso   ? 		H 		0.11165
H 1.0  		0.7082261896633723 		0.1474629502404554  0.09190115770126073 		Uiso   ? 		H 		0.11165
H 1.0  		0.7191502720926333 		0.6563450780253214  0.08613094718709274 		Uiso   ? 		H 		0.11165
H 1.0  		0.33505298132439526 		0.41809794876827955  -0.0068961052486397785 		Uiso   ? 		H 		0.03205
H 1.0  		0.3343993441196464 		0.9127490430856807  -0.0074590526158756785 		Uiso   ? 		H 		0.03205
H 1.0  		0.8359075916048333 		0.41515359701639026  -0.005629473672359003 		Uiso   ? 		H 		0.03205
H 1.0  		0.8370043403698486 		0.9137304936696439  -0.003799894728842327 		Uiso   ? 		H 		0.03205
H 1.0  		0.10965784955078071 		0.41736186083030724  -0.005488736830550028 		Uiso   ? 		H 		0.03205
H 1.0  		0.11436925239135731 		0.9223181862793209  -0.009570105243010305 		Uiso   ? 		H 		0.03205
H 1.0  		0.6138970284887548 		0.41736186083030724  -0.004081368412460277 		Uiso   ? 		H 		0.03205
H 1.0  		0.6116925425327941 		0.9174109333595054  -0.004362842096078227 		Uiso   ? 		H 		0.03205
H 1.0  		0.11305746499007517 		0.19211895181077634  -0.009007157875774404 		Uiso   ? 		H 		0.03204
H 1.0  		0.10707629937735158 		0.6897143978800668  -0.01027378945205518 		Uiso   ? 		H 		0.03204
H 1.0  		0.6128343503091291 		0.19211895181077634  -0.004785052621505153 		Uiso   ? 		H 		0.03204
H 1.0  		0.6111775244567084 		0.6924133869859653  -0.009570105243010305 		Uiso   ? 		H 		0.03204
H 1.0  		0.38473330040225745 		0.16684659927372658  -0.07515347352599269 		Uiso   ? 		H 		0.41436
H 1.0  		0.3850657435604741 		0.6762194523505741  -0.07262021037343114 		Uiso   ? 		H 		0.41436
H 1.0  		0.8487368134952484 		0.14034743350672294  -0.07064989458810549 		Uiso   ? 		H 		0.41436
H 1.0  		0.890472457873281 		0.6730297379526942  -0.07149431563895933 		Uiso   ? 		H 		0.41436
H 1.0  		0.4288425334143194 		0.3273137697516931  -0.00830347366672953 		Uiso   ? 		H 		0.03204
H 1.0  		0.42545059569187077 		0.8207380508391403  -0.014214421022706484 		Uiso   ? 		H 		0.03204
H 1.0  		0.9264769217643822 		0.3238786927078222  -0.003659157887033352 		Uiso   ? 		H 		0.03204
H 1.0  		0.9210281421554622 		0.8246638531749928  -0.01055526313567313 		Uiso   ? 		H 		0.03204
H 1.0  		0.4267743454410625 		0.10133477279418981  -0.009007157875774404 		Uiso   ? 		H 		0.03204
H 1.0  		0.41862661113676347 		0.5967219550495633  -0.015903263124414185 		Uiso   ? 		H 		0.03204
H 1.0  		0.9287659428968605 		0.10108941014819904  -0.011258947344718006 		Uiso   ? 		H 		0.03204
H 1.0  		0.9307390452197375 		0.6048189223672589  -0.011540421028335957 		Uiso   ? 		H 		0.03204
H 1.0  		0.2216087942310134 		0.06158602414368437  0.05165042094389385 		Uiso   ? 		H 		0.11421
H 1.0  		0.22025426896437086 		0.5616350966728826  0.050102315683995126 		Uiso   ? 		H 		0.11421
H 1.0  		0.718566366241767 		0.062322112081656694  0.05179115778570283 		Uiso   ? 		H 		0.11421
H 1.0  		0.7149554618701004 		0.5604082834429287  0.0479912630568605 		Uiso   ? 		H 		0.11421
H 1.0  		0.07186319923163849 		0.3162724506821082  -0.05066526305123102 		Uiso   ? 		H 		0.03037
H 1.0  		0.07582092827323417 		0.8163215232113064  -0.052917052520174625 		Uiso   ? 		H 		0.03037
H 1.0  		0.5786545813835263 		0.3226518794778683  -0.05207263146932078 		Uiso   ? 		H 		0.03037
H 1.0  		0.574309919604534 		0.8256453037589558  -0.05094673673484897 		Uiso   ? 		H 		0.03037
H 1.0  		0.20156763211719317 		0.10182549808617136  -0.007177578932257728 		Uiso   ? 		H 		0.03204
H 1.0  		0.2021671853697965 		0.6040828344292866  -0.0014073684180897507 		Uiso   ? 		H 		0.03204
H 1.0  		0.7046633474029189 		0.10378839925409757  -0.005770210514167979 		Uiso   ? 		H 		0.03204
H 1.0  		0.7025880176827275 		0.5994209441554619  -0.0032369473616064267 		Uiso   ? 		H 		0.03204
H 1.0  		0.36822918830032564 		0.3820296398076357  0.06670926301745418 		Uiso   ? 		H 		0.10635
H 1.0  		0.3648219764781407 		0.8783982726469723  0.07050915774629651 		Uiso   ? 		H 		0.10635
H 1.0  		0.8691342631718917 		0.3830110903915988  0.06867957880277983 		Uiso   ? 		H 		0.10635
H 1.0  		0.8697819598696636 		0.8828148002748062  0.0682573682773529 		Uiso   ? 		H 		0.10635
H 1.0  		0.04199960538850299 		0.15752281872607715  0.07135357879715036 		Uiso   ? 		H 		0.10635
H 1.0  		0.037897981981312945 		0.6546275395033861  0.06938326301182471 		Uiso   ? 		H 		0.10635
H 1.0  		0.5417612166078206 		0.16046717047796646  0.06980547353725164 		Uiso   ? 		H 		0.10635
H 1.0  		0.5386651029942616 		0.6583079791932477  0.0682573682773529 		Uiso   ? 		H 		0.10635
H 1.0  		0.2583302482217013 		0.06575718912552754  -0.050102315683995126 		Uiso   ? 		H 		0.03185
H 1.0  		0.252259272195529 		0.5635979978408088  -0.04869494726590537 		Uiso   ? 		H 		0.03185
H 1.0  		0.7595200284333498 		0.06305820001962902  -0.0474283156896246 		Uiso   ? 		H 		0.03185
H 1.0  		0.7730550893295106 		0.5601629207969379  -0.04785052621505153 		Uiso   ? 		H 		0.03185
H 1.0  		0.39139892774610263 		0.35994700166846605  0.0682573682773529 		Uiso   ? 		H 		0.10635
H 1.0  		0.3915822982768947 		0.8639218765335166  0.07050915774629651 		Uiso   ? 		H 		0.10635
H 1.0  		0.8939645781739841 		0.36509961723427226  0.06797589459373496 		Uiso   ? 		H 		0.10635
H 1.0  		0.8934752876963961 		0.8622043380115811  0.06839810511916189 		Uiso   ? 		H 		0.10635
H 1.0  		0.4613529291607587 		0.1908921385808225  -0.05094673673484897 		Uiso   ? 		H 		0.03177
H 1.0  		0.45917019378142293 		0.6833349690843067  -0.0491171577913323 		Uiso   ? 		H 		0.03177
H 1.0  		0.9678244154811726 		0.19408185297870253  -0.04644315779696177 		Uiso   ? 		H 		0.03177
H 1.0  		0.9672258851594704 		0.7054176072234764  -0.04756905253143358 		Uiso   ? 		H 		0.03177
H 1.0  		0.07793230874780743 		0.2625380312101286  -0.04883568410771435 		Uiso   ? 		H 		0.03177
H 1.0  		0.07037805684625748 		0.749337520855825  -0.04813199989866948 		Uiso   ? 		H 		0.03177
H 1.0  		0.5776476107069262 		0.2505152615565806  -0.05235410515293873 		Uiso   ? 		H 		0.03177
H 1.0  		0.5744704843027664 		0.750318971439788  -0.05094673673484897 		Uiso   ? 		H 		0.03177
H 1.0  		0.20415536679946553 		0.45293944449896956  -0.04925789463314127 		Uiso   ? 		H 		0.03185
H 1.0  		0.20856446905426396 		0.9581411325939739  -0.0491171577913323 		Uiso   ? 		H 		0.03185
H 1.0  		0.7086727746006336 		0.45392089508293265  -0.04813199989866948 		Uiso   ? 		H 		0.03185
H 1.0  		0.7063062630634713 		0.9578957699479832  -0.046865368322388704 		Uiso   ? 		H 		0.03185
H 1.0  		0.21328880816472953 		0.06109529885170282  0.08838273665603634 		Uiso   ? 		H 		0.11491
H 1.0  		0.22364531409879543 		0.5599175581509471  0.08345694719272222 		Uiso   ? 		H 		0.11491
H 1.0  		0.7195061373445338 		0.06207674943566592  0.08796052613060942 		Uiso   ? 		H 		0.11491
H 1.0  		0.7229643497277581 		0.5594268328589656  0.08401989455995812 		Uiso   ? 		H 		0.11491
H 1.0  		0.16793578293814196 		0.031161056040828347  0.06670926301745418 		Uiso   ? 		H 		0.10635
H 1.0  		0.16647385201235493 		0.5280204141721465  0.06797589459373496 		Uiso   ? 		H 		0.10635
H 1.0  		0.6709657595330032 		0.03214250662479145  0.06924252617001574 		Uiso   ? 		H 		0.10635
H 1.0  		0.6664391557811542 		0.5292472274021004  0.06980547353725164 		Uiso   ? 		H 		0.10635
H 1.0  		0.1663716079311526 		0.13470409264893515  0.06966473669544267 		Uiso   ? 		H 		0.10701
H 1.0  		0.16988028490550497 		0.6359799784080872  0.07093136827172343 		Uiso   ? 		H 		0.10701
H 1.0  		0.666369781045384 		0.13642163117087058  0.067694420910117 		Uiso   ? 		H 		0.10701
H 1.0  		0.666191588776422 		0.6349985278241241  0.0688203156445888 		Uiso   ? 		H 		0.10701
H 1.0  		0.3944554849032509 		1.0337128275591325  0.06924252617001574 		Uiso   ? 		H 		0.10701
H 1.0  		0.3929666251390087 		0.5356266561978604  0.07008694722086958 		Uiso   ? 		H 		0.10701
H 1.0  		0.8926704027022858 		1.031013838453234  0.06811663143554393 		Uiso   ? 		H 		0.10701
H 1.0  		0.8926601765215025 		0.5312101285700266  0.07050915774629651 		Uiso   ? 		H 		0.10701
H 1.0  		0.3662713277521514 		0.3020414172146433  0.055028105147309256 		Uiso   ? 		H 		0.11421
H 1.0  		0.37522605756243005 		0.8116596329374817  0.05052452620942205 		Uiso   ? 		H 		0.11421
H 1.0  		0.8793499258064358 		0.3150456374521543  0.047146842006006655 		Uiso   ? 		H 		0.11421
H 1.0  		0.8812244200930164 		0.8173029737952695  0.04292473675173739 		Uiso   ? 		H 		0.11421
H 1.0  		0.14211302475518428 		0.15163411522229855  0.06938326301182471 		Uiso   ? 		H 		0.10701
H 1.0  		0.14986502869923873 		0.6575718912552754  0.07022768406267856 		Uiso   ? 		H 		0.10701
H 1.0  		0.6448013549419467 		0.1570320934340956  0.0688203156445888 		Uiso   ? 		H 		0.10701
H 1.0  		0.6466999209511115 		0.6580626165472568  0.06938326301182471 		Uiso   ? 		H 		0.10701
H 1.0  		0.03676859118884354 		0.38080282657768183  0.06811663143554393 		Uiso   ? 		H 		0.10701
H 1.0  		0.03873289588887269 		0.8828148002748062  0.06839810511916189 		Uiso   ? 		H 		0.10701
H 1.0  		0.5464843711622168 		0.3832564530375896  0.07107210511353242 		Uiso   ? 		H 		0.10701
H 1.0  		0.5434868655849545 		0.8825694376288155  0.0688203156445888 		Uiso   ? 		H 		0.10701
H 1.0  		0.391464439118989 		0.13568554323289825  0.06811663143554393 		Uiso   ? 		H 		0.03130
H 1.0  		0.39593928006465173 		0.6418686819118659  0.07064989458810549 		Uiso   ? 		H 		0.03130
H 1.0  		0.8913968735423561 		0.13642163117087058  0.06924252617001574 		Uiso   ? 		H 		0.03130
H 1.0  		0.8891178512726831 		0.6337717145941703  0.07135357879715036 		Uiso   ? 		H 		0.03130
H 1.0  		0.3852958613035331 		0.25296888801648837  0.06853884196097086 		Uiso   ? 		H 		0.03130
H 1.0  		0.3905942700699704 		0.7539994111296496  0.06910178932820676 		Uiso   ? 		H 		0.03130
H 1.0  		0.8939163210698267 		0.25493178918441456  0.07008694722086958 		Uiso   ? 		H 		0.03130
H 1.0  		0.885451012080013 		0.7535086858376682  0.06966473669544267 		Uiso   ? 		H 		0.03130
H 1.0  		0.2746800124592775 		0.1226813229953872  0.0682573682773529 		Uiso   ? 		H 		0.03130
H 1.0  		0.2739106589335259 		0.636225341054078  0.07050915774629651 		Uiso   ? 		H 		0.03130
H 1.0  		0.7725380097504772 		0.1273432132692119  0.06994621037906061 		Uiso   ? 		H 		0.03130
H 1.0  		0.7718649431150628 		0.6359799784080872  0.07064989458810549 		Uiso   ? 		H 		0.03130
H 1.0  		0.14870276856133716 		0.3832564530375896  0.07121284195534139 		Uiso   ? 		H 		0.03130
H 1.0  		0.1524086616082826 		0.887476690548631  0.07022768406267856 		Uiso   ? 		H 		0.03130
H 1.0  		0.6402624311813329 		0.3731965845519678  0.07107210511353242 		Uiso   ? 		H 		0.03130
H 1.0  		0.6366098598413862 		0.8690744920993229  0.07093136827172343 		Uiso   ? 		H 		0.03130
H 1.0  		0.26448168542741746 		0.3955245853371283  0.06910178932820676 		Uiso   ? 		H 		0.03130
H 1.0  		0.26121242746384965 		0.8891942290705664  0.0688203156445888 		Uiso   ? 		H 		0.03130
H 1.0  		0.7638289481098935 		0.3827657277456081  0.07149431563895933 		Uiso   ? 		H 		0.03130
H 1.0  		0.7623123972620495 		0.8867406026106586  0.06924252617001574 		Uiso   ? 		H 		0.03130
H 1.0  		0.15693050940922393 		0.26499165767003635  0.07177578932257729 		Uiso   ? 		H 		0.03130
H 1.0  		0.15034474262494385 		0.7630778290313083  0.06980547353725164 		Uiso   ? 		H 		0.03130
H 1.0  		0.6477411405221576 		0.2627833938561194  0.07079063142991446 		Uiso   ? 		H 		0.03130
H 1.0  		0.6501369020437342 		0.760133477279419  0.06994621037906061 		Uiso   ? 		H 		0.03130
H 1.0  		0.46581020718575944 		0.26695455883796254  -0.05094673673484897 		Uiso   ? 		H 		0.03037
H 1.0  		0.4671194461231042 		0.7655314554912162  -0.04756905253143358 		Uiso   ? 		H 		0.03037
H 1.0  		0.9647524059152317 		0.26401020708607326  -0.049820842000377175 		Uiso   ? 		H 		0.03037
H 1.0  		0.9605193051263128 		0.7591520266954559  -0.05207263146932078 		Uiso   ? 		H 		0.03037
H 1.0  		0.07127375850082947 		0.201197369712435  0.04785052621505153 		Uiso   ? 		H 		0.11421
H 1.0  		0.06983174396669761 		0.707871233683384  0.05179115778570283 		Uiso   ? 		H 		0.11421
H 1.0  		0.5725251220724131 		0.21052115026008442  0.0513689472602759 		Uiso   ? 		H 		0.11421
H 1.0  		0.5730501390113042 		0.7100794974973011  0.0502430525258041 		Uiso   ? 		H 		0.11421
H 1.0  		0.2925302745159264 		0.28290313082736285  0.01111821050290903 		Uiso   ? 		H 		0.13863
H 1.0  		0.290454944795735 		0.7785356757287272  0.013229263130043656 		Uiso   ? 		H 		0.13863
H 1.0  		0.7933848847963645 		0.27995877907547356  0.011681157870144931 		Uiso   ? 		H 		0.13863
H 1.0  		0.7861528498722479 		0.7763274119148101  0.015481052598987258 		Uiso   ? 		H 		0.13863
H 1.0  		0.3286293047713841 		0.05888703503778585  -0.046724631480579724 		Uiso   ? 		H 		0.03044
H 1.0  		0.322911093922118 		0.5604082834429287  -0.0479912630568605 		Uiso   ? 		H 		0.03044
H 1.0  		0.8372914315059575 		0.06305820001962902  -0.04785052621505153 		Uiso   ? 		H 		0.03044
H 1.0  		0.838977507342793 		0.5640887231327903  -0.04756905253143358 		Uiso   ? 		H 		0.03044
H 1.0  		0.24285969465785778 		1.0101580135440182  0.007881263141302604 		Uiso   ? 		H 		0.13864
H 1.0  		0.2470904743008172 		0.5086367651388752  0.01083673681929108 		Uiso   ? 		H 		0.13864
H 1.0  		0.746665095628325 		1.0084404750220828  0.011962631553762882 		Uiso   ? 		H 		0.13864
H 1.0  		0.7451498429955392 		0.5052016880950045  0.011399684186526982 		Uiso   ? 		H 		0.13864
H 1.0  		0.01854613452462299 		0.23088624987731868  0.011821894711953907 		Uiso   ? 		H 		0.13863
H 1.0  		1.0198211714909577 		0.7387869270782217  0.01111821050290903 		Uiso   ? 		H 		0.13863
H 1.0  		0.5198785108868074 		0.23824712925704192  0.01083673681929108 		Uiso   ? 		H 		0.13863
H 1.0  		0.5165129660329025 		0.7368240259102955  0.011399684186526982 		Uiso   ? 		H 		0.13863
H 1.0  		0.1859088384126607 		0.30424968102856026  -0.07050915774629651 		Uiso   ? 		H 		0.41426
H 1.0  		0.18441635928740088 		0.806997742663657  -0.07107210511353242 		Uiso   ? 		H 		0.41426
H 1.0  		0.6933200958358413 		0.30719403278044954  -0.07262021037343114 		Uiso   ? 		H 		0.41426
H 1.0  		0.6851154204635259 		0.8033173029737953  -0.07247947353162217 		Uiso   ? 		H 		0.41426
H 1.0  		0.2441056130253985 		0.23407596427519875  0.01055526313567313 		Uiso   ? 		H 		0.13933
H 1.0  		0.24542364958559115 		0.7343703994503877  0.010977473661100056 		Uiso   ? 		H 		0.13933
H 1.0  		0.746620798862152 		0.23530277750515263  0.012947789446425707 		Uiso   ? 		H 		0.13933
H 1.0  		0.743719580175227 		0.729708509176563  0.00830347366672953 		Uiso   ? 		H 		0.13933
O 1.0  		0.3332782963140688 		0.19015605064285016  0.4229142096359701 		Uiso   ? 		O 		-0.97332
O 1.0  		0.3344583790156442 		0.6931494749239376  0.423477157003206 		Uiso   ? 		O 		-0.97332
O 1.0  		0.8346171491531418 		0.19285503974874868  0.4222105254269252 		Uiso   ? 		O 		-0.97332
O 1.0  		0.8314312251261342 		0.6909412111100206  0.42178831490149826 		Uiso   ? 		O 		-0.97332
O 1.0  		0.14972673386365445 		0.32240651683187754  0.4227734727941611 		Uiso   ? 		O 		-0.97351
O 1.0  		0.14639405835518177 		0.8214741387771126  0.42235126226873415 		Uiso   ? 		O 		-0.97351
O 1.0  		0.6482944168395957 		0.32338796741584064  0.4213661043760714 		Uiso   ? 		O 		-0.97351
O 1.0  		0.6490888650188327 		0.8222102267150849  0.42249199911054314 		Uiso   ? 		O 		-0.97351
O 1.0  		0.24364836395528597 		0.3700068701540878  0.4399433674948561 		Uiso   ? 		O 		-1.12392
O 1.0  		0.24122259020414788 		0.8683384041613506  0.4413507359129458 		Uiso   ? 		O 		-1.12392
O 1.0  		0.7454932099296188 		0.3707429580920601  0.44022484117847405 		Uiso   ? 		O 		-1.12392
O 1.0  		0.7466885667309305 		0.8707920306212583  0.44022484117847405 		Uiso   ? 		O 		-1.12392
O 1.0  		0.20483072225580579 		0.377367749533811  0.4227734727941611 		Uiso   ? 		O 		-0.97464
O 1.0  		0.20250355654096425 		0.8771714594170185  0.423054946477779 		Uiso   ? 		O 		-0.97464
O 1.0  		0.7026382549558774 		0.37810383747178333  0.4229142096359701 		Uiso   ? 		O 		-0.97464
O 1.0  		0.70446228465133 		0.8764353714790462  0.42235126226873415 		Uiso   ? 		O 		-0.97464
O 1.0  		0.20506398908278084 		0.32216115418588676  0.42206978858511623 		Uiso   ? 		O 		-0.97358
O 1.0  		0.20112671240275182 		0.8217195014231035  0.4227734727941611 		Uiso   ? 		O 		-0.97358
O 1.0  		0.703868233953636 		0.321915791539896  0.42249199911054314 		Uiso   ? 		O 		-0.97358
O 1.0  		0.7046386104102886 		0.8219648640690942  0.42235126226873415 		Uiso   ? 		O 		-0.97358
O 1.0  		0.14917907376011452 		0.32216115418588676  0.4859643147663909 		Uiso   ? 		O 		-0.97598
O 1.0  		0.1495990061858205 		0.8249092158209835  0.485401367399155 		Uiso   ? 		O 		-0.97598
O 1.0  		0.6515956515605715 		0.321915791539896  0.485682841082773 		Uiso   ? 		O 		-0.97598
O 1.0  		0.6518271655365322 		0.8234370399450388  0.485682841082773 		Uiso   ? 		O 		-0.97598
O 1.0  		0.1995578137698882 		0.3731965845519678  0.48666799897543583 		Uiso   ? 		O 		-0.95788
O 1.0  		0.20213551726432172 		0.8764353714790462  0.4865272621336268 		Uiso   ? 		O 		-0.95788
O 1.0  		0.6997749535333376 		0.3702522328000785  0.4849791568737281 		Uiso   ? 		O 		-0.95788
O 1.0  		0.7032026177170893 		0.8734910197271568  0.485682841082773 		Uiso   ? 		O 		-0.95788
O 1.0  		0.19926101573901916 		0.32117970360192366  0.48666799897543583 		Uiso   ? 		O 		-0.91942
O 1.0  		0.2003753597497302 		0.8231916772990481  0.48694947265905375 		Uiso   ? 		O 		-0.91942
O 1.0  		0.7017016652620605 		0.319707527725979  0.4859643147663909 		Uiso   ? 		O 		-0.91942
O 1.0  		0.7030613687905332 		0.8222102267150849  0.48666799897543583 		Uiso   ? 		O 		-0.91942
O 1.0  		0.0930783731971799 		0.26818137206791637  0.4697795779583588 		Uiso   ? 		O 		-0.56854
O 1.0  		0.09251686755183897 		0.7689665325350868  0.47189063058549346 		Uiso   ? 		O 		-0.56854
O 1.0  		0.5929779382751147 		0.2684267347139072  0.47386094637081905 		Uiso   ? 		O 		-0.56854
O 1.0  		0.5940594129403935 		0.76994798311905  0.47189063058549346 		Uiso   ? 		O 		-0.56854
O 1.0  		0.09255807988416304 		0.3206889783099421  0.4371286306586766 		Uiso   ? 		O 		-0.59545
O 1.0  		0.09132623437640136 		0.8209834134851312  0.4383952622349574 		Uiso   ? 		O 		-0.59545
O 1.0  		0.5903568149613869 		0.319707527725979  0.43741010434229455 		Uiso   ? 		O 		-0.59545
O 1.0  		0.5932192237959026 		0.8192658749631957  0.4385359990767663 		Uiso   ? 		O 		-0.59545
O 1.0  		0.20547687673665327 		0.266463833545981  0.43769157802591246 		Uiso   ? 		O 		-0.59668
O 1.0  		0.20467001157355064 		0.7667582687211699  0.4392396832858112 		Uiso   ? 		O 		-0.59668
O 1.0  		0.7086054613678111 		0.26891746000588873  0.43656568329144063 		Uiso   ? 		O 		-0.59668
O 1.0  		0.7078314655501408 		0.7697026204730593  0.4383952622349574 		Uiso   ? 		O 		-0.59668
O 1.0  		0.25318316857858075 		0.42987535577583674  0.4741424200544371 		Uiso   ? 		O 		-0.56447
O 1.0  		0.25480350572455157 		0.929924428305035  0.4751275779470998 		Uiso   ? 		O 		-0.56447
O 1.0  		0.7543336029679085 		0.43134753165178136  0.47301652531996524 		Uiso   ? 		O 		-0.56447
O 1.0  		0.7561006915953445 		0.9304151535970164  0.47386094637081905 		Uiso   ? 		O 		-0.56447
O 1.0  		0.20387665097528196 		0.42815781725390134  0.47611273583976266 		Uiso   ? 		O 		-0.56220
O 1.0  		0.20322533491649236 		0.9291883403670625  0.4717498937436844 		Uiso   ? 		O 		-0.56220
O 1.0  		0.703105876190796 		0.42791245460791055  0.47386094637081905 		Uiso   ? 		O 		-0.56220
O 1.0  		0.7066890894788607 		0.9318873294729612  0.4721721042691114 		Uiso   ? 		O 		-0.56220
O 1.0  		0.09391403370874099 		0.3187260771420159  0.4714684200600665 		Uiso   ? 		O 		-0.56216
O 1.0  		0.09518392682376503 		0.8214741387771126  0.47245357795272935 		Uiso   ? 		O 		-0.56216
O 1.0  		0.5918442461676936 		0.319707527725979  0.4725943147945383 		Uiso   ? 		O 		-0.56216
O 1.0  		0.596202883831364 		0.8209834134851312  0.4737202095290101 		Uiso   ? 		O 		-0.56216
O 1.0  		0.20135855067179143 		0.2684267347139072  0.4725943147945383 		Uiso   ? 		O 		-0.56871
O 1.0  		0.19935775726531238 		0.7667582687211699  0.4741424200544371 		Uiso   ? 		O 		-0.56871
O 1.0  		0.7058847560958075 		0.2711257238198057  0.4728757884781562 		Uiso   ? 		O 		-0.56871
O 1.0  		0.7048894724829594 		0.7701933457650407  0.4737202095290101 		Uiso   ? 		O 		-0.56871
O 1.0  		0.4451653041633732 		0.24266365688487587  0.46963884111654985 		Uiso   ? 		O 		-0.56910
O 1.0  		0.44749764814004483 		0.7454117185199726  0.47329799900358316 		Uiso   ? 		O 		-0.56910
O 1.0  		0.9455643858996792 		0.24560800863676513  0.47104620953463955 		Uiso   ? 		O 		-0.56910
O 1.0  		0.939754043491005 		0.7409951908921386  0.47400168321262803 		Uiso   ? 		O 		-0.56910
O 1.0  		0.33336151659163993 		0.08195112376091865  0.47062399900921265 		Uiso   ? 		O 		-0.56804
O 1.0  		0.3337069127036336 		0.5820001962901168  0.4737202095290101 		Uiso   ? 		O 		-0.56804
O 1.0  		0.8366697220496951 		0.08391402492884485  0.47160915690187544 		Uiso   ? 		O 		-0.56804
O 1.0  		0.830206635024296 		0.5822455589361076  0.47273505163634727 		Uiso   ? 		O 		-0.56804
O 1.0  		0.15226916553274095 		0.27946805378349204  0.46766852533122416 		Uiso   ? 		O 		-1.11899
O 1.0  		0.15249188188585375 		0.7792717636666995  0.4700610516419767 		Uiso   ? 		O 		-1.11899
O 1.0  		0.6548741617829432 		0.28044950436745514  0.4693573674329319 		Uiso   ? 		O 		-1.11899
O 1.0  		0.653968688583544 		0.7792717636666995  0.4689351569075049 		Uiso   ? 		O 		-1.11899
O 1.0  		0.2833607010623251 		0.193591127686721  0.47400168321262803 		Uiso   ? 		O 		-0.56452
O 1.0  		0.28581572479787765 		0.6965845519678084  0.47400168321262803 		Uiso   ? 		O 		-0.56452
O 1.0  		0.7838560696889684 		0.1916282265187948  0.47357947268720113 		Uiso   ? 		O 		-0.56452
O 1.0  		0.7799187930089393 		0.6911865737560114  0.4717498937436844 		Uiso   ? 		O 		-0.56452
O 1.0  		0.3288575560044397 		0.07974285994700167  0.4362842096078227 		Uiso   ? 		O 		-0.59596
O 1.0  		0.33123804342628 		0.5800372951221906  0.4385359990767663 		Uiso   ? 		O 		-0.59596
O 1.0  		0.8335874539779373 		0.08072431053096478  0.4369878938168676 		Uiso   ? 		O 		-0.59596
O 1.0  		0.8314968501580096 		0.5793012071842184  0.43741010434229455 		Uiso   ? 		O 		-0.59596
O 1.0  		0.2782938062718485 		0.19408185297870253  0.43966189381123816 		Uiso   ? 		O 		-0.59474
O 1.0  		0.28300520911242516 		0.6990381784277163  0.4381137885513394 		Uiso   ? 		O 		-0.59474
O 1.0  		0.7800488418327327 		0.19506330356266566  0.43881747276038424 		Uiso   ? 		O 		-0.59474
O 1.0  		0.7800021269454994 		0.6956031013838454  0.4375508411841035 		Uiso   ? 		O 		-0.59474
O 1.0  		0.11650006229659612 		0.354549023456669  0.41362557807657774 		Uiso   ? 		O 		-0.60596
O 1.0  		0.11312571981984332 		0.8514083815879872  0.4132033675511508 		Uiso   ? 		O 		-0.60596
O 1.0  		0.6133830979936374 		0.3525861222887428  0.41362557807657774 		Uiso   ? 		O 		-0.60596
O 1.0  		0.6151413889982256 		0.8499362057120424  0.41362557807657774 		Uiso   ? 		O 		-0.60596
O 1.0  		0.17815313377363318 		0.25983904210423003  0.4117959991330611 		Uiso   ? 		O 		-0.60576
O 1.0  		0.1730788699182442 		0.7566984002355482  0.4151736833364765 		Uiso   ? 		O 		-0.60576
O 1.0  		0.6736297510549687 		0.25591323976837765  0.4134848412347688 		Uiso   ? 		O 		-0.60576
O 1.0  		0.6756597944458621 		0.7589066640494652  0.4148922096528585 		Uiso   ? 		O 		-0.60576
O 1.0  		0.25841160198926916 		0.40165865148689767  0.49623810421844605 		Uiso   ? 		O 		-0.54353
O 1.0  		0.26028609627584964 		0.9039159878300129  0.49764547263653586 		Uiso   ? 		O 		-0.54353
O 1.0  		0.7596277750694613 		0.40411227794680543  0.49553442000940123 		Uiso   ? 		O 		-0.54353
O 1.0  		0.7593685700098984 		0.9046520757679851  0.4979269463201538 		Uiso   ? 		O 		-0.54353
O 1.0  		0.11609683252856191 		0.34694278143095497  0.4965195779020641 		Uiso   ? 		O 		-0.55376
O 1.0  		0.11950922261257707 		0.8531259201099225  0.4960973673766371 		Uiso   ? 		O 		-0.55376
O 1.0  		0.6200337108807579 		0.34718814407694576  0.4973639989529179 		Uiso   ? 		O 		-0.55376
O 1.0  		0.6210999114463003 		0.8516537442339779  0.4972232621111089 		Uiso   ? 		O 		-0.55376
O 1.0  		0.2528807543338135 		0.31749926391206207  0.47315726216177423 		Uiso   ? 		O 		-0.56331
O 1.0  		0.2502184186877616 		0.8170576111492788  0.4728757884781562 		Uiso   ? 		O 		-0.56331
O 1.0  		0.7560422083104036 		0.32044361566395135  0.4720313674273024 		Uiso   ? 		O 		-0.56331
O 1.0  		0.7553820946287662 		0.8197566002551773  0.47400168321262803 		Uiso   ? 		O 		-0.56331
O 1.0  		0.16859987364165224 		0.2615565806261655  0.4949714726421653 		Uiso   ? 		O 		-0.56947
O 1.0  		0.17063871465539374 		0.7662675434291885  0.4975047357947269 		Uiso   ? 		O 		-0.56947
O 1.0  		0.6721927844397898 		0.25983904210423003  0.49567515685121016 		Uiso   ? 		O 		-0.56947
O 1.0  		0.6708141874505631 		0.7611149278633821  0.49553442000940123 		Uiso   ? 		O 		-0.56947
O 1.0  		0.4231015167324936 		0.24953381097261754  0.4939863147495025 		Uiso   ? 		O 		-0.56619
O 1.0  		0.4215826447386901 		0.747129257041908  0.4980676831619628 		Uiso   ? 		O 		-0.56619
O 1.0  		0.9195771673305717 		0.2510059868485622  0.4946899989585474 		Uiso   ? 		O 		-0.56619
O 1.0  		0.9137668249218975 		0.7463931691039356  0.496941788427491 		Uiso   ? 		O 		-0.56619
O 1.0  		0.3612070137506459 		0.10746883894395919  0.49595663053482814 		Uiso   ? 		O 		-0.55223
O 1.0  		0.36413516127602613 		0.6080086367651389  0.49778620947834484 		Uiso   ? 		O 		-0.55223
O 1.0  		0.8708658526560028 		0.11065855334183924  0.49342336738226655 		Uiso   ? 		O 		-0.55223
O 1.0  		0.8603566547334947 		0.6072725488271666  0.49623810421844605 		Uiso   ? 		O 		-0.55223
O 1.0  		0.15454924305834863 		0.3690254195701247  0.47076473585102163 		Uiso   ? 		O 		-1.09612
O 1.0  		0.1532363847599862 		0.8712827559132399  0.4694981042747408 		Uiso   ? 		O 		-1.09612
O 1.0  		0.6537455989284304 		0.36828933163215233  0.46992031480016777 		Uiso   ? 		O 		-1.09612
O 1.0  		0.657720923215722 		0.8717734812052214  0.4693573674329319 		Uiso   ? 		O 		-1.09612
O 1.0  		0.2804728409562113 		0.16316615958386496  0.496660314743873 		Uiso   ? 		O 		-0.56374
O 1.0  		0.2800997537606155 		0.6651781332809893  0.4979269463201538 		Uiso   ? 		O 		-0.56374
O 1.0  		0.7797502096168939 		0.16046717047796646  0.49708252526929997 		Uiso   ? 		O 		-0.56374
O 1.0  		0.7755675734191031 		0.6595347924232016  0.4958158936930192 		Uiso   ? 		O 		-0.56374
O 1.0  		0.35965152270751544 		0.10010795956423595  0.4115145254494431 		Uiso   ? 		O 		-0.60541
O 1.0  		0.36347129789049387 		0.6028560211993327  0.4140477886020047 		Uiso   ? 		O 		-0.60541
O 1.0  		0.8649948194754172 		0.10231622337815291  0.412358946500297 		Uiso   ? 		O 		-0.60541
O 1.0  		0.8612042942768532 		0.6008931200314064  0.4117959991330611 		Uiso   ? 		O 		-0.60541
O 1.0  		0.2715570513412189 		0.1648836981058004  0.4143292622856226 		Uiso   ? 		O 		-0.60655
O 1.0  		0.270995545695878 		0.665668858572971  0.4141885254438136 		Uiso   ? 		O 		-0.60655
O 1.0  		0.771325139037425 		0.16316615958386496  0.4143292622856226 		Uiso   ? 		O 		-0.60655
O 1.0  		0.7688512218411183 		0.6639513200510355  0.4137663149183867 		Uiso   ? 		O 		-0.60655
O 1.0  		0.29150777009657813 		0.41515359701639026  0.45753547272097794 		Uiso   ? 		O 		-0.58017
O 1.0  		0.29026712696596857 		0.9137304936696439  0.45711326219555104 		Uiso   ? 		O 		-0.58017
O 1.0  		0.79381926338385 		0.41809794876827955  0.45612810430288825 		Uiso   ? 		O 		-0.58017
O 1.0  		0.7936082017694559 		0.9161841201295515  0.4579576832464049 		Uiso   ? 		O 		-0.58017
O 1.0  		0.10790881080499651 		0.3722151339680047  0.45598736746107926 		Uiso   ? 		O 		-0.58231
O 1.0  		0.10676677571068349 		0.8722642064972029  0.45429852535937154 		Uiso   ? 		O 		-0.58231
O 1.0  		0.6049714673289353 		0.369761507508097  0.45401705167575357 		Uiso   ? 		O 		-0.58231
O 1.0  		0.6089708633388109 		0.8720188438512121  0.4555651569356523 		Uiso   ? 		O 		-0.58231
O 1.0  		0.15201403447015197 		0.22965943664736485  0.45401705167575357 		Uiso   ? 		O 		-0.58341
O 1.0  		0.15024332648169825 		0.7314260476984984  0.45528368325203433 		Uiso   ? 		O 		-0.58341
O 1.0  		0.6528533706508536 		0.22965943664736485  0.45429852535937154 		Uiso   ? 		O 		-0.58341
O 1.0  		0.65360847300777 		0.7326528609284524  0.4557058937774613 		Uiso   ? 		O 		-0.58341
O 1.0  		0.42975725887252253 		0.28069486701344587  0.4530318937830907 		Uiso   ? 		O 		-0.58303
O 1.0  		0.43256272663902184 		0.7809893021886348  0.4562688411446972 		Uiso   ? 		O 		-0.58303
O 1.0  		0.9312428631930607 		0.28241240553538133  0.45429852535937154 		Uiso   ? 		O 		-0.58303
O 1.0  		0.9278773183391558 		0.7809893021886348  0.45697252535374205 		Uiso   ? 		O 		-0.58303
O 1.0  		0.3837263297256573 		0.09470998135243891  0.45162452536500103 		Uiso   ? 		O 		-0.58188
O 1.0  		0.38398191542420224 		0.5950044165276278  0.4557058937774613 		Uiso   ? 		O 		-0.58188
O 1.0  		0.888497894667435 		0.09789969575031898  0.45387631483394464 		Uiso   ? 		O 		-0.58188
O 1.0  		0.8826634805361764 		0.5945136912356463  0.4558466306192702 		Uiso   ? 		O 		-0.58188
O 1.0  		0.09165668068173757 		0.2691628226518795  0.43445463066430606 		Uiso   ? 		O 		-0.59447
O 1.0  		0.08975449531155505 		0.7689665325350868  0.4371286306586766 		Uiso   ? 		O 		-0.59447
O 1.0  		0.589659108308443 		0.266463833545981  0.43741010434229455 		Uiso   ? 		O 		-0.59447
O 1.0  		0.5917132234219208 		0.7682304445971145  0.4362842096078227 		Uiso   ? 		O 		-0.59447
O 1.0  		0.24417820149515207 		0.14157424673667682  0.45767620956278693 		Uiso   ? 		O 		-0.58184
O 1.0  		0.246543414817256 		0.6448130336637551  0.4555651569356523 		Uiso   ? 		O 		-0.58184
O 1.0  		0.7468401388133707 		0.14181960938266758  0.45598736746107926 		Uiso   ? 		O 		-0.58184
O 1.0  		0.7416519928219487 		0.6401511433899304  0.4528911569412818 		Uiso   ? 		O 		-0.58184
O 1.0  		0.24336893385213468 		0.09618215722838357  0.4557058937774613 		Uiso   ? 		O 		-0.57922
O 1.0  		0.24609338882803325 		0.5984394935714987  0.45767620956278693 		Uiso   ? 		O 		-0.57922
O 1.0  		0.7475183023766602 		0.09642751987437434  0.45640957798650617 		Uiso   ? 		O 		-0.57922
O 1.0  		0.7445865354902621 		0.5967219550495633  0.4500764201051023 		Uiso   ? 		O 		-0.57922
O 1.0  		0.4300742329380584 		0.14108352144469527  0.4530318937830907 		Uiso   ? 		O 		-0.58115
O 1.0  		0.43095849153074417 		0.6396604180979488  0.4551429464102254 		Uiso   ? 		O 		-0.58115
O 1.0  		0.9335139157778424 		0.14500932378054765  0.4533133674667087 		Uiso   ? 		O 		-0.58115
O 1.0  		0.9286104751265027 		0.6396604180979488  0.4548614727266075 		Uiso   ? 		O 		-0.58115
O 1.0  		0.24154753395457493 		0.36878005692413385  0.46992031480016777 		Uiso   ? 		O 		-1.09728
O 1.0  		0.24180311965311993 		0.8690744920993229  0.47076473585102163 		Uiso   ? 		O 		-1.09728
O 1.0  		0.7455501509976352 		0.3700068701540878  0.4700610516419767 		Uiso   ? 		O 		-1.09728
O 1.0  		0.7434354754551232 		0.8698105800372952  0.46963884111654985 		Uiso   ? 		O 		-1.09728
O 1.0  		0.38447278044374833 		0.28192168024339975  0.4550022095684164 		Uiso   ? 		O 		-0.58082
O 1.0  		0.38740092796912856 		0.7824614780645796  0.45697252535374205 		Uiso   ? 		O 		-0.58082
O 1.0  		0.8861051362457516 		0.28265776818137206  0.4554244200938434 		Uiso   ? 		O 		-0.58082
O 1.0  		0.882919212218744 		0.7807439395426441  0.45612810430288825 		Uiso   ? 		O 		-0.58082
O 1.0  		0.10739989590379861 		0.23137697516930023  0.4533133674667087 		Uiso   ? 		O 		-0.58119
O 1.0  		0.10513846887982142 		0.7321621356364708  0.45401705167575357 		Uiso   ? 		O 		-0.58119
O 1.0  		0.6071110425319882 		0.23039552458533713  0.45472073588479844 		Uiso   ? 		O 		-0.58119
O 1.0  		0.6075879160257106 		0.7324074982824615  0.45317263062489976 		Uiso   ? 		O 		-0.58119
O 1.0  		0.153733125636442 		0.41711649818431645  0.45725399903736 		Uiso   ? 		O 		-0.57614
O 1.0  		0.15113652868125454 		0.9176562960054963  0.45472073588479844 		Uiso   ? 		O 		-0.57614
O 1.0  		0.6508615208512452 		0.4156443223083718  0.45809842008821383 		Uiso   ? 		O 		-0.57614
O 1.0  		0.6545257469299105 		0.9176562960054963  0.4550022095684164 		Uiso   ? 		O 		-0.57614
O 1.0  		0.29087812328045803 		0.3692707822161154  0.4555651569356523 		Uiso   ? 		O 		-0.57942
O 1.0  		0.289580539081832 		0.8685837668073413  0.45612810430288825 		Uiso   ? 		O 		-0.57942
O 1.0  		0.793614596912389 		0.3722151339680047  0.45655031482831515 		Uiso   ? 		O 		-0.57942
O 1.0  		0.7939840647469669 		0.871037393267249  0.45711326219555104 		Uiso   ? 		O 		-0.57942
O 1.0  		0.3963814010190506 		0.19481794091667487  0.45317263062489976 		Uiso   ? 		O 		-0.91981
O 1.0  		0.39943222830331165 		0.6956031013838454  0.4550022095684164 		Uiso   ? 		O 		-0.91981
O 1.0  		0.8999020966494353 		0.19678084208460106  0.4535948411503266 		Uiso   ? 		O 		-0.91981
O 1.0  		0.8949833818983592 		0.6943762881538915  0.45387631483394464 		Uiso   ? 		O 		-0.91981
O 1.0  		0.3292761735311993 		0.19702620473059185  0.45457999904298946 		Uiso   ? 		O 		-0.91758
O 1.0  		0.3334223210225402 		0.6983020904897439  0.45612810430288825 		Uiso   ? 		O 		-0.91758
O 1.0  		0.8324529016075257 		0.19702620473059185  0.45401705167575357 		Uiso   ? 		O 		-0.91758
O 1.0  		0.8285966377180974 		0.6946216507998823  0.45429852535937154 		Uiso   ? 		O 		-0.91758
O 1.0  		0.3292594385484939 		0.1285700264991658  0.45317263062489976 		Uiso   ? 		O 		-0.92220
O 1.0  		0.33216351435128977 		0.6303366375502993  0.4555651569356523 		Uiso   ? 		O 		-0.92220
O 1.0  		0.8337527746270776 		0.13077829031308275  0.4535948411503266 		Uiso   ? 		O 		-0.92220
O 1.0  		0.8309348898767126 		0.629600549612327  0.45387631483394464 		Uiso   ? 		O 		-0.92220
O 1.0  		0.20714636357480573 		0.384973991559525  0.45528368325203433 		Uiso   ? 		O 		-0.90762
O 1.0  		0.20564508682669802 		0.8860045146726864  0.45528368325203433 		Uiso   ? 		O 		-0.90762
O 1.0  		0.7066778893760979 		0.3844832662675434  0.4544392622011805 		Uiso   ? 		O 		-0.90762
O 1.0  		0.7090671744207862 		0.8864952399646678  0.4544392622011805 		Uiso   ? 		O 		-0.90762
O 1.0  		0.20417883790207114 		0.3152910000981451  0.45429852535937154 		Uiso   ? 		O 		-0.92012
O 1.0  		0.2046797831183779 		0.8160761605653156  0.4551429464102254 		Uiso   ? 		O 		-0.92012
O 1.0  		0.70688244218857 		0.3177446265580528  0.45387631483394464 		Uiso   ? 		O 		-0.92012
O 1.0  		0.7070153481282342 		0.8177936990872511  0.45415778851756256 		Uiso   ? 		O 		-0.92012
O 1.0  		0.3145587577964253 		0.15654136814211406  0.39321873601427637 		Uiso   ? 		O 		-0.55228
O 1.0  		0.314790271772386 		0.6580626165472568  0.3933594728560853 		Uiso   ? 		O 		-0.55228
O 1.0  		0.8168943228062816 		0.1582589066640495  0.3933594728560853 		Uiso   ? 		O 		-0.55228
O 1.0  		0.8121311571595187 		0.6565904406713123  0.3926557886470405 		Uiso   ? 		O 		-0.55228
O 1.0  		0.255152407538574 		0.316517813328099  0.4362842096078227 		Uiso   ? 		O 		-0.59170
O 1.0  		0.2536752025130506 		0.8163215232113064  0.4386767359185753 		Uiso   ? 		O 		-0.59170
O 1.0  		0.7595976001719891 		0.32117970360192366  0.43741010434229455 		Uiso   ? 		O 		-0.59170
O 1.0  		0.7602693685923454 		0.8197566002551773  0.4386767359185753 		Uiso   ? 		O 		-0.59170
O 1.0  		0.13941100230984466 		0.31749926391206207  0.45387631483394464 		Uiso   ? 		O 		-0.91298
O 1.0  		0.13881662731907157 		0.8177936990872511  0.45457999904298946 		Uiso   ? 		O 		-0.91298
O 1.0  		0.6371199269736199 		0.3167631759740897  0.45401705167575357 		Uiso   ? 		O 		-0.91298
O 1.0  		0.6411105253606477 		0.8173029737952695  0.45415778851756256 		Uiso   ? 		O 		-0.91298
O 1.0  		0.1785768805533012 		0.4136814211404456  0.4141885254438136 		Uiso   ? 		O 		-0.58586
O 1.0  		0.17575899580293625 		0.9125036804396899  0.41390705176019565 		Uiso   ? 		O 		-0.58586
O 1.0  		0.6719373937341893 		0.41147315732652867  0.4146107359692406 		Uiso   ? 		O 		-0.58586
O 1.0  		0.6782172405716733 		0.9144665816076161  0.41249968334210596 		Uiso   ? 		O 		-0.58586
O 1.0  		0.2069765142927356 		0.4347826086956522  0.44078778854570994 		Uiso   ? 		O 		-0.59088
O 1.0  		0.2068969300600702 		0.9348316812248504  0.43769157802591246 		Uiso   ? 		O 		-0.59088
O 1.0  		0.7040150990940901 		0.43355579546569833  0.4385359990767663 		Uiso   ? 		O 		-0.59088
O 1.0  		0.7088315864478517 		0.935322406516832  0.43741010434229455 		Uiso   ? 		O 		-0.59088
O 1.0  		0.15408296904741015 		0.2779958779075474  0.4389582096021933 		Uiso   ? 		O 		-1.12709
O 1.0  		0.15322796043913886 		0.7807439395426441  0.4406470517039009 		Uiso   ? 		O 		-1.12709
O 1.0  		0.6551764623687213 		0.28020414172146435  0.4393804201276202 		Uiso   ? 		O 		-1.12709
O 1.0  		0.6550070677226073 		0.7804985768966534  0.4399433674948561 		Uiso   ? 		O 		-1.12709
O 1.0  		0.42338011889768823 		0.16169398370792032  0.41193673597487 		Uiso   ? 		O 		-0.58845
O 1.0  		0.4254583057337503 		0.6622337815291001  0.41362557807657774 		Uiso   ? 		O 		-0.58845
O 1.0  		0.9257902202212568 		0.16611051133575427  0.41052936755678027 		Uiso   ? 		O 		-0.58845
O 1.0  		0.9236820211556331 		0.6612523309451369  0.4132033675511508 		Uiso   ? 		O 		-0.58845
O 1.0  		0.44610410134416056 		0.19481794091667487  0.4358619990823958 		Uiso   ? 		O 		-0.59292
O 1.0  		0.44935862117790326 		0.6938855628619099  0.43769157802591246 		Uiso   ? 		O 		-0.59292
O 1.0  		0.9479577449413412 		0.1972715673765826  0.4355805253987779 		Uiso   ? 		O 		-0.59292
O 1.0  		0.9451222649452805 		0.6926587496319561  0.43726936750048556 		Uiso   ? 		O 		-0.59292
O 1.0  		0.26848429517127664 		0.41245460791049177  0.4146107359692406 		Uiso   ? 		O 		-0.60540
O 1.0  		0.2645382208683996 		0.910295416625773  0.41362557807657774 		Uiso   ? 		O 		-0.60540
O 1.0  		0.7689884614207678 		0.4122092452645009  0.4134848412347688 		Uiso   ? 		O 		-0.60540
O 1.0  		0.7692199753967286 		0.9137304936696439  0.4137663149183867 		Uiso   ? 		O 		-0.60540
O 1.0  		0.25672328634042985 		0.43355579546569833  0.4385359990767663 		Uiso   ? 		O 		-0.59609
O 1.0  		0.25782883272829304 		0.9338502306408873  0.43966189381123816 		Uiso   ? 		O 		-0.59609
O 1.0  		0.7564432305914673 		0.43429188340367064  0.43769157802591246 		Uiso   ? 		O 		-0.59609
O 1.0  		0.7619300578076499 		0.9365492197467858  0.4389582096021933 		Uiso   ? 		O 		-0.59609
O 1.0  		0.27727938519638046 		0.07900677200902935  0.4369878938168676 		Uiso   ? 		O 		-0.59182
O 1.0  		0.2816468204828988 		0.5820001962901168  0.4389582096021933 		Uiso   ? 		O 		-0.59182
O 1.0  		0.7822875120330719 		0.08096967317695555  0.4367064201332497 		Uiso   ? 		O 		-0.59182
O 1.0  		0.7818070191783317 		0.5797919324761999  0.43515831487335094 		Uiso   ? 		O 		-0.59182
O 1.0  		0.26956448726264265 		0.10182549808617136  0.4126404201839149 		Uiso   ? 		O 		-0.58769
O 1.0  		0.2714389815492232 		0.6040828344292866  0.4134848412347688 		Uiso   ? 		O 		-0.58769
O 1.0  		0.7739592153049298 		0.10256158602414368  0.4126404201839149 		Uiso   ? 		O 		-0.58769
O 1.0  		0.7681664681419516 		0.6013838453233881  0.41292189386753286 		Uiso   ? 		O 		-0.58769
O 1.0  		0.3690941957714022 		0.15384237903621553  0.3919521044379956 		Uiso   ? 		O 		-0.55222
O 1.0  		0.3738055986119788 		0.6587987044852293  0.39448536759055713 		Uiso   ? 		O 		-0.55222
O 1.0  		0.8674975320201824 		0.1523702031602709  0.39237431496342245 		Uiso   ? 		O 		-0.55222
O 1.0  		0.8711617580988478 		0.6543821768573952  0.39237431496342245 		Uiso   ? 		O 		-0.55222
O 1.0  		0.4223348899797356 		0.25395033860045146  0.41249968334210596 		Uiso   ? 		O 		-0.60584
O 1.0  		0.42510980954676225 		0.760133477279419  0.41531442017828546 		Uiso   ? 		O 		-0.60584
O 1.0  		0.9250144225436502 		0.2576307782903131  0.412218209658488 		Uiso   ? 		O 		-0.60584
O 1.0  		0.9238219228582092 		0.7537540484836589  0.41390705176019565 		Uiso   ? 		O 		-0.60584
O 1.0  		0.44623655264786866 		0.24438119540681127  0.4355805253987779 		Uiso   ? 		O 		-0.59609
O 1.0  		0.4479554978301361 		0.7459024438119541  0.4381137885513394 		Uiso   ? 		O 		-0.59609
O 1.0  		0.9461777846940835 		0.24683482186671904  0.4358619990823958 		Uiso   ? 		O 		-0.59609
O 1.0  		0.9471125078778972 		0.749337520855825  0.43881747276038424 		Uiso   ? 		O 		-0.59609
O 1.0  		0.35959334807450793 		0.2546864265384238  0.412358946500297 		Uiso   ? 		O 		-0.58791
O 1.0  		0.36423901222422017 		0.7586613014034744  0.4146107359692406 		Uiso   ? 		O 		-0.58791
O 1.0  		0.8632455210866214 		0.2586122288742762  0.41362557807657774 		Uiso   ? 		O 		-0.58791
O 1.0  		0.8627562306090334 		0.7557169496515851  0.41334410439295977 		Uiso   ? 		O 		-0.58791
O 1.0  		0.28541327395887844 		0.08465011286681716  0.47118694637644853 		Uiso   ? 		O 		-0.56520
O 1.0  		0.28606976827949826 		0.5861713612719599  0.47343873584539214 		Uiso   ? 		O 		-0.56520
O 1.0  		0.787069701483466 		0.08415938757483563  0.4720313674273024 		Uiso   ? 		O 		-0.56520
O 1.0  		0.7802385751814243 		0.5817548336441261  0.47034252532559473 		Uiso   ? 		O 		-0.56520
O 1.0  		0.2807061077831863 		0.10795956423594073  0.49567515685121016 		Uiso   ? 		O 		-0.54567
O 1.0  		0.27945019055284037 		0.6094808126410836  0.4975047357947269 		Uiso   ? 		O 		-0.54567
O 1.0  		0.7819463525859628 		0.1091863774658946  0.4946899989585474 		Uiso   ? 		O 		-0.54567
O 1.0  		0.7786946898680908 		0.6062910982432035  0.4949714726421653 		Uiso   ? 		O 		-0.54567
O 1.0  		0.41730771431358055 		0.16144862106192956  0.496941788427491 		Uiso   ? 		O 		-0.56995
O 1.0  		0.41956552197653996 		0.6614976935911278  0.4973639989529179 		Uiso   ? 		O 		-0.56995
O 1.0  		0.924727769359609 		0.16611051133575427  0.49426778843312047 		Uiso   ? 		O 		-0.56995
O 1.0  		0.9170948258134177 		0.6612523309451369  0.4965195779020641 		Uiso   ? 		O 		-0.56995
O 1.0  		0.36818924185802626 		0.24977917361860832  0.49567515685121016 		Uiso   ? 		O 		-0.55884
O 1.0  		0.36895961831467905 		0.7498282461478065  0.49820842000377175 		Uiso   ? 		O 		-0.55884
O 1.0  		0.8658500230766328 		0.2514967121405437  0.49708252526929997 		Uiso   ? 		O 		-0.55884
O 1.0  		0.8589443604608789 		0.7463931691039356  0.496941788427491 		Uiso   ? 		O 		-0.55884
O 1.0  		0.11443895142020646 		0.2603297673962116  0.49426778843312047 		Uiso   ? 		O 		-0.55496
O 1.0  		0.11701017843775141 		0.7682304445971145  0.4973639989529179 		Uiso   ? 		O 		-0.55496
O 1.0  		0.6186540586355962 		0.2615565806261655  0.4963788410602551 		Uiso   ? 		O 		-0.55496
O 1.0  		0.619319350579064 		0.7647953675532437  0.4949714726421653 		Uiso   ? 		O 		-0.55496
O 1.0  		0.1726313110590035 		0.40264010207086076  0.4994750515800525 		Uiso   ? 		O 		-0.54469
O 1.0  		0.17387713245144332 		0.9066149769359113  0.4972232621111089 		Uiso   ? 		O 		-0.54469
O 1.0  		0.6720072877559827 		0.4014132888409069  0.4975047357947269 		Uiso   ? 		O 		-0.54469
O 1.0  		0.6760154813887064 		0.9053881637059574  0.49623810421844605 		Uiso   ? 		O 		-0.54469
O 1.0  		0.2575254768865801 		0.34718814407694576  0.4965195779020641 		Uiso   ? 		O 		-0.54282
O 1.0  		0.2585083435155623 		0.8472372166061439  0.4975047357947269 		Uiso   ? 		O 		-0.54282
O 1.0  		0.7600165910007494 		0.3496417705368535  0.496801051585682 		Uiso   ? 		O 		-0.54282
O 1.0  		0.762193385873108 		0.8516537442339779  0.49778620947834484 		Uiso   ? 		O 		-0.54282
O 1.0  		0.11439728445192637 		0.2581215035822947  0.4112330517658252 		Uiso   ? 		O 		-0.58949
O 1.0  		0.11154653035612927 		0.7564530375895575  0.41390705176019565 		Uiso   ? 		O 		-0.58949
O 1.0  		0.6129080263598511 		0.25983904210423003  0.4127811570257239 		Uiso   ? 		O 		-0.58949
O 1.0  		0.6136367358482238 		0.7576798508195113  0.4126404201839149 		Uiso   ? 		O 		-0.58949
O 1.0  		0.2680208292672872 		0.3516046717047797  0.41306263070934185 		Uiso   ? 		O 		-0.58833
O 1.0  		0.2662325260331377 		0.8499362057120424  0.4151736833364765 		Uiso   ? 		O 		-0.58833
O 1.0  		0.7684111133807454 		0.35283148493473354  0.4140477886020047 		Uiso   ? 		O 		-0.58833
O 1.0  		0.7677093327308279 		0.8499362057120424  0.4134848412347688 		Uiso   ? 		O 		-0.58833
O 1.0  		0.36846881794520026 		0.20953969967612132  0.3927965254888494 		Uiso   ? 		O 		-0.55222
O 1.0  		0.37170806367920656 		0.7115516733732457  0.3933594728560853 		Uiso   ? 		O 		-0.55222
O 1.0  		0.8713608406814443 		0.21322013936598294  0.3929372623306584 		Uiso   ? 		O 		-0.55222
O 1.0  		0.8689832103754747 		0.709098046913338  0.39321873601427637 		Uiso   ? 		O 		-0.55222
O 1.0  		0.296166078548134 		0.14525468642653844  0.4694981042747408 		Uiso   ? 		O 		-1.10355
O 1.0  		0.2946231348317462 		0.6440769457257828  0.47048326216740366 		Uiso   ? 		O 		-1.10355
O 1.0  		0.7975202054869434 		0.14500932378054765  0.4694981042747408 		Uiso   ? 		O 		-1.10355
O 1.0  		0.789192850355747 		0.6408872313279027  0.4680907358566511 		Uiso   ? 		O 		-1.10355
O 1.0  		0.3835476828207393 		0.14280105996663067  0.46879442006569594 		Uiso   ? 		O 		-1.11639
O 1.0  		0.3848985887263641 		0.6435862204338013  0.46992031480016777 		Uiso   ? 		O 		-1.11639
O 1.0  		0.8868318165562102 		0.14599077436451074  0.468653683223887 		Uiso   ? 		O 		-1.11639
O 1.0  		0.8818473631142698 		0.6426047698498382  0.46963884111654985 		Uiso   ? 		O 		-1.11639
O 1.0  		0.3848310481755637 		0.23333987633722644  0.46837220954026904 		Uiso   ? 		O 		-1.11954
O 1.0  		0.3862148234266208 		0.7346157620963786  0.47104620953463955 		Uiso   ? 		O 		-1.11954
O 1.0  		0.8837251034598673 		0.23284915104524487  0.46907589374931397 		Uiso   ? 		O 		-1.11954
O 1.0  		0.8793540488123313 		0.7306899597605262  0.4697795779583588 		Uiso   ? 		O 		-1.11954
O 1.0  		0.2913598173751556 		0.14329178525861222  0.4399433674948561 		Uiso   ? 		O 		-1.12527
O 1.0  		0.292261671213537 		0.6453037589557366  0.44106926222932785 		Uiso   ? 		O 		-1.12527
O 1.0  		0.7950601338324376 		0.1447639611345569  0.44022484117847405 		Uiso   ? 		O 		-1.12527
O 1.0  		0.7912126675658573 		0.6440769457257828  0.4389582096021933 		Uiso   ? 		O 		-1.12527
O 1.0  		0.3303483959376742 		0.2463440965747375  0.4369878938168676 		Uiso   ? 		O 		-0.59307
O 1.0  		0.3345362103972952 		0.7498282461478065  0.43952115696942917 		Uiso   ? 		O 		-0.59307
O 1.0  		0.8314330916361375 		0.24683482186671904  0.4375508411841035 		Uiso   ? 		O 		-0.59307
O 1.0  		0.8313775791260565 		0.7456570811659634  0.4378323148677215 		Uiso   ? 		O 		-0.59307
O 1.0  		0.38160240192434136 		0.14231033467464912  0.4385359990767663 		Uiso   ? 		O 		-1.12708
O 1.0  		0.3840814973824782 		0.6440769457257828  0.440365578020283 		Uiso   ? 		O 		-1.12708
O 1.0  		0.8861286073483573 		0.14500932378054765  0.4389582096021933 		Uiso   ? 		O 		-1.12708
O 1.0  		0.8811441539064169 		0.641623319265875  0.440084104336665 		Uiso   ? 		O 		-1.12708
O 1.0  		0.3818890551083825 		0.233830601629208  0.4385359990767663 		Uiso   ? 		O 		-1.12760
O 1.0  		0.3843352812210871 		0.73510648738836  0.4420544201219907 		Uiso   ? 		O 		-1.12760
O 1.0  		0.8843713715997038 		0.2345666895671803  0.43966189381123816 		Uiso   ? 		O 		-1.12760
O 1.0  		0.8823793758160727 		0.7346157620963786  0.43952115696942917 		Uiso   ? 		O 		-1.12760
O 1.0  		0.31849746303438975 		0.15506919226616941  0.5134079989191411 		Uiso   ? 		O 		-0.79092
O 1.0  		0.31826232969741136 		0.6543821768573952  0.5174893673316013 		Uiso   ? 		O 		-0.79092
O 1.0  		0.819983067354928 		0.15678673078810484  0.513970946286377 		Uiso   ? 		O 		-0.79092
O 1.0  		0.8153249862213501 		0.6519285503974875  0.513689472602759 		Uiso   ? 		O 		-0.79092
O 1.0  		0.4421390032376524 		0.19113750122681325  0.47160915690187544 		Uiso   ? 		O 		-0.56753
O 1.0  		0.446261079006409 		0.6936402002159192  0.4745646305798639 		Uiso   ? 		O 		-0.56753
O 1.0  		0.9474670259058178 		0.1962901167926195  0.4700610516419767 		Uiso   ? 		O 		-0.56753
O 1.0  		0.9420487944963705 		0.6911865737560114  0.47315726216177423 		Uiso   ? 		O 		-0.56753
O 1.0  		0.37189823497996616 		0.1560506428501325  0.5141116831281859 		Uiso   ? 		O 		-0.74304
O 1.0  		0.3765591732294148 		0.6570811659632938  0.5156597883880847 		Uiso   ? 		O 		-0.74304
O 1.0  		0.8745754463979212 		0.15335165374423398  0.5132672620773321 		Uiso   ? 		O 		-0.74304
O 1.0  		0.8696655292696932 		0.6526646383354598  0.5134079989191411 		Uiso   ? 		O 		-0.74304
O 1.0  		0.3747865820470696 		0.21027578761409366  0.5135487357609501 		Uiso   ? 		O 		-0.75101
O 1.0  		0.3715108476066134 		0.7086073216213564  0.5156597883880847 		Uiso   ? 		O 		-0.75101
O 1.0  		0.8788549377809943 		0.2124840514280106  0.5132672620773321 		Uiso   ? 		O 		-0.75101
O 1.0  		0.8692197722703885 		0.707871233683384  0.513689472602759 		Uiso   ? 		O 		-0.75101
O 1.0  		0.158764716276538 		0.2971341642948278  0.5132672620773321 		Uiso   ? 		O 		-0.83617
O 1.0  		0.1627576358095253 		0.8040533909117676  0.5149561041790398 		Uiso   ? 		O 		-0.83617
O 1.0  		0.6632580523551217 		0.29934242810874473  0.513970946286377 		Uiso   ? 		O 		-0.83617
O 1.0  		0.6660153766764525 		0.8020904897438415  0.5138302094445679 		Uiso   ? 		O 		-0.83617
O 1.0  		0.15889069110335757 		0.3513593090587889  0.5153783147044667 		Uiso   ? 		O 		-0.82744
O 1.0  		0.16412568232488978 		0.8577878103837473  0.5153783147044667 		Uiso   ? 		O 		-0.82744
O 1.0  		0.6655089289052366 		0.3535675728727059  0.5148153673372308 		Uiso   ? 		O 		-0.82744
O 1.0  		0.663893770021096 		0.8560702718618118  0.5149561041790398 		Uiso   ? 		O 		-0.82744
O 1.0  		0.21777038523029252 		0.3611738148984199  0.5156597883880847 		Uiso   ? 		O 		-0.71793
O 1.0  		0.2198485720663546 		0.8617136127195997  0.5156597883880847 		Uiso   ? 		O 		-0.71793
O 1.0  		0.7189184984736608 		0.3562665619786044  0.5142524199699949 		Uiso   ? 		O 		-0.71793
O 1.0  		0.7186111499689296 		0.8592599862596918  0.5149561041790398 		Uiso   ? 		O 		-0.71793
O 1.0  		0.17067528469579893 		0.30523113161252335  0.39167063075437764 		Uiso   ? 		O 		-0.55212
O 1.0  		0.16720233418274957 		0.8006183138678968  0.3929372623306584 		Uiso   ? 		O 		-0.55212
O 1.0  		0.6664630001857603 		0.3027775051526156  0.3926557886470405 		Uiso   ? 		O 		-0.55212
O 1.0  		0.6682388864360443 		0.8035626656197861  0.3927965254888494 		Uiso   ? 		O 		-0.55212
O 1.0  		0.1554496683387947 		0.37295122190597707  0.4406470517039009 		Uiso   ? 		O 		-1.12153
O 1.0  		0.1539877374130077 		0.8698105800372952  0.440084104336665 		Uiso   ? 		O 		-1.12153
O 1.0  		0.652724815035063 		0.3704975954460693  0.440365578020283 		Uiso   ? 		O 		-1.12153
O 1.0  		0.6563561717682961 		0.8720188438512121  0.43966189381123816 		Uiso   ? 		O 		-1.12153
O 1.0  		0.16955918783407356 		0.35994700166846605  0.39321873601427637 		Uiso   ? 		O 		-0.55225
O 1.0  		0.16634919208448168 		0.8592599862596918  0.3935002096978943 		Uiso   ? 		O 		-0.55225
O 1.0  		0.6696559689846016 		0.36313671606634607  0.3929372623306584 		Uiso   ? 		O 		-0.55225
O 1.0  		0.6681523710905344 		0.8577878103837473  0.3929372623306584 		Uiso   ? 		O 		-0.55225
O 1.0  		0.22479135854001492 		0.36289135342035533  0.39237431496342245 		Uiso   ? 		O 		-0.55239
O 1.0  		0.2209262970277387 		0.8587692609677103  0.3927965254888494 		Uiso   ? 		O 		-0.55239
O 1.0  		0.722303067131197 		0.3592109137304937  0.39321873601427637 		Uiso   ? 		O 		-0.55239
O 1.0  		0.7229836331744011 		0.8595053489056826  0.3927965254888494 		Uiso   ? 		O 		-0.55239
O 1.0  		0.33796738028307544 		0.1396113455687506  0.4849791568737281 		Uiso   ? 		O 		-0.95808
O 1.0  		0.34026685491431496 		0.6418686819118659  0.48680873581724476 		Uiso   ? 		O 		-0.95808
O 1.0  		0.8406052458787099 		0.14108352144469527  0.48526063055734603 		Uiso   ? 		O 		-0.95808
O 1.0  		0.8348606421609001 		0.6374521542840318  0.4848384200319191 		Uiso   ? 		O 		-0.95808
O 1.0  		0.39022566249838275 		0.19015605064285016  0.4848384200319191 		Uiso   ? 		O 		-0.88446
O 1.0  		0.38984377767993916 		0.6904504858180391  0.48694947265905375 		Uiso   ? 		O 		-0.88446
O 1.0  		0.8901340251991655 		0.19211895181077634  0.48526063055734603 		Uiso   ? 		O 		-0.88446
O 1.0  		0.8843324804133392 		0.6892236725880853  0.485542104240964 		Uiso   ? 		O 		-0.88446
O 1.0  		0.33519400293297325 		0.24413583276082051  0.47357947268720113 		Uiso   ? 		O 		-0.56806
O 1.0  		0.33719117697843465 		0.7466385317499264  0.4752683147889088 		Uiso   ? 		O 		-0.56806
O 1.0  		0.8336718754954658 		0.2453626459907744  0.47343873584539214 		Uiso   ? 		O 		-0.56806
O 1.0  		0.8296271931562922 		0.741731278830111  0.47357947268720113 		Uiso   ? 		O 		-0.56806
O 1.0  		0.33795308010531844 		0.19015605064285016  0.4858235779245819 		Uiso   ? 		O 		-0.94925
O 1.0  		0.3381757964584312 		0.6899597605260576  0.4873716831844807 		Uiso   ? 		O 		-0.94925
O 1.0  		0.8382864231507602 		0.19211895181077634  0.48680873581724476 		Uiso   ? 		O 		-0.94925
O 1.0  		0.8329339304321773 		0.6879968593581314  0.4851198937155371 		Uiso   ? 		O 		-0.94925
O 1.0  		0.3331851908326814 		0.13642163117087058  0.42150684121788035 		Uiso   ? 		O 		-0.97459
O 1.0  		0.33484719494693227 		0.6386789675139858  0.4226327359523522 		Uiso   ? 		O 		-0.97459
O 1.0  		0.8359786055326288 		0.1386298949847875  0.42249199911054314 		Uiso   ? 		O 		-0.97459
O 1.0  		0.8321223416432005 		0.636225341054078  0.4210846306924534 		Uiso   ? 		O 		-0.97459
O 1.0  		0.3885586104651787 		0.1906467759348317  0.42150684121788035 		Uiso   ? 		O 		-0.97348
O 1.0  		0.39046597409719136 		0.6933948375699285  0.42375863068682396 		Uiso   ? 		O 		-0.97348
O 1.0  		0.8893169338552797 		0.1926096771027579  0.42094389385064446 		Uiso   ? 		O 		-0.97348
O 1.0  		0.8875855716891465 		0.6902051231720484  0.42094389385064446 		Uiso   ? 		O 		-0.97348
O 1.0  		0.24614130495522382 		0.3707429580920601  0.28597726255583733 		Uiso   ? 		O 		-1.13799
O 1.0  		0.24392802137641525 		0.8690744920993229  0.2849921046631745 		Uiso   ? 		O 		-1.13799
O 1.0  		0.7461066087240231 		0.371969771322014  0.2868216836066912 		Uiso   ? 		O 		-1.13799
O 1.0  		0.7482505342509496 		0.8734910197271568  0.28597726255583733 		Uiso   ? 		O 		-1.13799
O 1.0  		0.3349388718703843 		0.19432721562469332  0.11399684186526982 		Uiso   ? 		O 		-0.98200
O 1.0  		0.332644575500975 		0.6946216507998823  0.1145597892325057 		Uiso   ? 		O 		-0.98200
O 1.0  		0.8325667837435587 		0.1955540288546472  0.11498199975793262 		Uiso   ? 		O 		-0.98200
O 1.0  		0.8347171857473736 		0.6924133869859653  0.11498199975793262 		Uiso   ? 		O 		-0.98200
O 1.0  		0.33242833562475066 		0.19015605064285016  0.2668370520698167 		Uiso   ? 		O 		-0.98194
O 1.0  		0.33597867956738303 		0.6936402002159192  0.2676814731206706 		Uiso   ? 		O 		-0.98194
O 1.0  		0.8338569988772723 		0.1926096771027579  0.2675407362788616 		Uiso   ? 		O 		-0.98194
O 1.0  		0.833540852749693 		0.6938855628619099  0.26852589417152445 		Uiso   ? 		O 		-0.98194
O 1.0  		0.14782311993553657 		0.32412405535381295  0.11484126291612365 		Uiso   ? 		O 		-0.98200
O 1.0  		0.14791435890692067 		0.8219648640690942  0.11413757870707879 		Uiso   ? 		O 		-0.98200
O 1.0  		0.6495781554964206 		0.32510550593777604  0.11554494712516852 		Uiso   ? 		O 		-0.98200
O 1.0  		0.6480833552252014 		0.8214741387771126  0.11399684186526982 		Uiso   ? 		O 		-0.98200
O 1.0  		0.14836198241622858 		0.3226518794778683  0.26880736785514237 		Uiso   ? 		O 		-0.98194
O 1.0  		0.14952446987210816 		0.8222102267150849  0.26852589417152445 		Uiso   ? 		O 		-0.98194
O 1.0  		0.6472801094231165 		0.32093434095593293  0.26880736785514237 		Uiso   ? 		O 		-0.98194
O 1.0  		0.6498008718495336 		0.8249092158209835  0.2678222099624796 		Uiso   ? 		O 		-0.98194
O 1.0  		0.20194567025664104 		0.3771223868878202  0.11441905239069673 		Uiso   ? 		O 		-0.98200
O 1.0  		0.20375442585235712 		0.8783982726469723  0.11329315765622494 		Uiso   ? 		O 		-0.98200
O 1.0  		0.7037335751629572 		0.37859456276376485  0.11498199975793262 		Uiso   ? 		O 		-0.98200
O 1.0  		0.7035794546165797 		0.8759446461870645  0.11441905239069673 		Uiso   ? 		O 		-0.98200
O 1.0  		0.20336736277208337 		0.3761409363038571  0.26937031522237825 		Uiso   ? 		O 		-0.98194
O 1.0  		0.20295260860820752 		0.8759446461870645  0.2679629468042885 		Uiso   ? 		O 		-0.98194
O 1.0  		0.7038803266444225 		0.37761311217980176  0.2675407362788616 		Uiso   ? 		O 		-0.98194
O 1.0  		0.7055992718266899 		0.8791343605849447  0.26880736785514237 		Uiso   ? 		O 		-0.98194
O 1.0  		0.2779168557133691 		0.07900677200902935  0.12835199972978528 		Uiso   ? 		O 		-0.61067
O 1.0  		0.2768975003779369 		0.5793012071842184  0.12947789446425706 		Uiso   ? 		O 		-0.61067
O 1.0  		0.7802524207232253 		0.08072431053096478  0.12891494709702117 		Uiso   ? 		O 		-0.61067
O 1.0  		0.7768868758693205 		0.5793012071842184  0.12835199972978528 		Uiso   ? 		O 		-0.61067
O 1.0  		0.09069283785638649 		0.27063499852782413  0.16508431544192775 		Uiso   ? 		O 		-0.61064
O 1.0  		0.09251686755183897 		0.7689665325350868  0.16395842070745598 		Uiso   ? 		O 		-0.61064
O 1.0  		0.5910085856561325 		0.2691628226518795  0.16564726280916367 		Uiso   ? 		O 		-0.61064
O 1.0  		0.5917220210447688 		0.76994798311905  0.16438063123288288 		Uiso   ? 		O 		-0.61064
O 1.0  		0.20385478673966806 		0.32314260476984985  0.11427831554888776 		Uiso   ? 		O 		-0.98200
O 1.0  		0.20566354233538411 		0.8244184905290018  0.11343389449803391 		Uiso   ? 		O 		-0.98200
O 1.0  		0.7032066917140629 		0.32314260476984985  0.1151227365997416 		Uiso   ? 		O 		-0.98200
O 1.0  		0.7052279374821085 		0.8244184905290018  0.11357463133984289 		Uiso   ? 		O 		-0.98200
O 1.0  		0.20354368853104193 		0.3216704288939052  0.26894810469695135 		Uiso   ? 		O 		-0.98194
O 1.0  		0.2040117644019165 		0.8219648640690942  0.26866663101333343 		Uiso   ? 		O 		-0.98194
O 1.0  		0.7038112928856193 		0.3226518794778683  0.26866663101333343 		Uiso   ? 		O 		-0.98194
O 1.0  		0.7049825779643468 		0.8239277652370204  0.26866663101333343 		Uiso   ? 		O 		-0.98194
O 1.0  		0.14779025059010437 		0.3236333300618314  0.1790172627810163 		Uiso   ? 		O 		-0.98193
O 1.0  		0.14993417611703092 		0.8251545784669743  0.17859505225558936 		Uiso   ? 		O 		-0.98193
O 1.0  		0.6482615474941634 		0.3228972421238591  0.1794394733064432 		Uiso   ? 		O 		-0.98193
O 1.0  		0.6485171331927084 		0.8231916772990481  0.17929873646463423 		Uiso   ? 		O 		-0.98193
O 1.0  		0.14890964251976851 		0.3228972421238591  0.3322796835109902 		Uiso   ? 		O 		-0.98194
O 1.0  		0.1479384306295049 		0.8207380508391403  0.33298336772003506 		Uiso   ? 		O 		-0.98194
O 1.0  		0.6498147173913345 		0.3238786927078222  0.3324204203527991 		Uiso   ? 		O 		-0.98194
O 1.0  		0.6504624140891064 		0.8236824025910296  0.3328426308782261 		Uiso   ? 		O 		-0.98194
O 1.0  		0.09067524261069071 		0.2671999214839533  0.3173615782792388 		Uiso   ? 		O 		-0.61071
O 1.0  		0.09013780868793408 		0.7667582687211699  0.31764305196285675 		Uiso   ? 		O 		-0.61071
O 1.0  		0.5892341279637839 		0.266463833545981  0.3167986309120029 		Uiso   ? 		O 		-0.61071
O 1.0  		0.5926529945246877 		0.7679850819511238  0.3173615782792388 		Uiso   ? 		O 		-0.61071
O 1.0  		0.20453721929287547 		0.3793306507017372  0.17915799962282525 		Uiso   ? 		O 		-0.98193
O 1.0  		0.20297020385390335 		0.8793797232309354  0.17817284173016246 		Uiso   ? 		O 		-0.98193
O 1.0  		0.7050983266103832 		0.3783492001177741  0.1794394733064432 		Uiso   ? 		O 		-0.98193
O 1.0  		0.7031632718947685 		0.8776621847089999  0.1784543154137804 		Uiso   ? 		O 		-0.98193
O 1.0  		0.20447148060201112 		0.3783492001177741  0.33270189403641703 		Uiso   ? 		O 		-0.98194
O 1.0  		0.20341925592114676 		0.8781529100009816  0.3325611571946081 		Uiso   ? 		O 		-0.98194
O 1.0  		0.7041585555076164 		0.37859456276376485  0.33270189403641703 		Uiso   ? 		O 		-0.98194
O 1.0  		0.7055664024812578 		0.8786436352929631  0.33270189403641703 		Uiso   ? 		O 		-0.98194
O 1.0  		0.20452512660208882 		0.3236333300618314  0.1784543154137804 		Uiso   ? 		O 		-0.98193
O 1.0  		0.2050020000958113 		0.8256453037589558  0.17817284173016246 		Uiso   ? 		O 		-0.98193
O 1.0  		0.7040654500262289 		0.3248601432917853  0.1788765259392073 		Uiso   ? 		O 		-0.98193
O 1.0  		0.7031599768268297 		0.8236824025910296  0.17789136804654448 		Uiso   ? 		O 		-0.98193
O 1.0  		0.28026304523184176 		0.08072431053096478  0.16339547334022006 		Uiso   ? 		O 		-0.61064
O 1.0  		0.2799140297588304 		0.5815094709981353  0.16283252597298417 		Uiso   ? 		O 		-0.61064
O 1.0  		0.7806774010678843 		0.08072431053096478  0.16438063123288288 		Uiso   ? 		O 		-0.61064
O 1.0  		0.7787094770068375 		0.5795465698302091  0.16381768386564696 		Uiso   ? 		O 		-0.61064
O 1.0  		0.20287334866862117 		0.32117970360192366  0.33396852561269785 		Uiso   ? 		O 		-0.98194
O 1.0  		0.203096065021734 		0.8209834134851312  0.33340557824546196 		Uiso   ? 		O 		-0.98194
O 1.0  		0.7023391357790489 		0.319707527725979  0.33270189403641703 		Uiso   ? 		O 		-0.98194
O 1.0  		0.7066584276203989 		0.8251545784669743  0.33185747298556323 		Uiso   ? 		O 		-0.98194
O 1.0  		0.08955914574896533 		0.321915791539896  0.12919642078063912 		Uiso   ? 		O 		-0.60771
O 1.0  		0.09171834537562817 		0.8204926881931495  0.12919642078063912 		Uiso   ? 		O 		-0.60771
O 1.0  		0.5920085928948545 		0.32216115418588676  0.129900104989684 		Uiso   ? 		O 		-0.60771
O 1.0  		0.5905466619690675 		0.819020512317205  0.12919642078063912 		Uiso   ? 		O 		-0.60771
O 1.0  		0.08972996895301479 		0.319707527725979  0.2838662099287027 		Uiso   ? 		O 		-0.60751
O 1.0  		0.09109614895837598 		0.8175483364412602  0.2813329467761412 		Uiso   ? 		O 		-0.60751
O 1.0  		0.5912965860641537 		0.31946216507998826  0.28288105203603986 		Uiso   ? 		O 		-0.60751
O 1.0  		0.59146236134925 		0.820001962901168  0.2841476836123207 		Uiso   ? 		O 		-0.60751
O 1.0  		0.2078647332234061 		0.2703896358818334  0.12877421025521218 		Uiso   ? 		O 		-0.60771
O 1.0  		0.20607642998925652 		0.7687211698890961  0.129900104989684 		Uiso   ? 		O 		-0.60771
O 1.0  		0.7066032394033968 		0.2691628226518795  0.129900104989684 		Uiso   ? 		O 		-0.60771
O 1.0  		0.7080110863770379 		0.7692118951810777  0.1293371576224481 		Uiso   ? 		O 		-0.60771
O 1.0  		0.15519588450018576 		0.28192168024339975  0.16156589439670338 		Uiso   ? 		O 		-1.13805
O 1.0  		0.1576421106128905 		0.7831975660025519  0.16100294702946746 		Uiso   ? 		O 		-1.13805
O 1.0  		0.6557329200951092 		0.28216704288939054  0.1624103154475572 		Uiso   ? 		O 		-1.13805
O 1.0  		0.6565931069652106 		0.781970752772598  0.1608622101876585 		Uiso   ? 		O 		-1.13805
O 1.0  		0.20545280501406898 		0.26769064677593485  0.2830217888778489 		Uiso   ? 		O 		-0.60751
O 1.0  		0.20585514219407908 		0.7670036313671607  0.2837254730868937 		Uiso   ? 		O 		-0.60751
O 1.0  		0.708449912263498 		0.26818137206791637  0.28344399940327575 		Uiso   ? 		O 		-0.60751
O 1.0  		0.7068259557565095 		0.7689665325350868  0.2833032625614668 		Uiso   ? 		O 		-0.60751
O 1.0  		0.09067853767862945 		0.32117970360192366  0.16395842070745598 		Uiso   ? 		O 		-0.60747
O 1.0  		0.0907785742728614 		0.8207380508391403  0.16297326281479313 		Uiso   ? 		O 		-0.60747
O 1.0  		0.590389684306819 		0.32019825301796057  0.16466210491650082 		Uiso   ? 		O 		-0.60747
O 1.0  		0.589517080452852 		0.8195112376091864  0.16409915754926493 		Uiso   ? 		O 		-0.60747
O 1.0  		0.09073547874664596 		0.32044361566395135  0.31806526248828365 		Uiso   ? 		O 		-0.60778
O 1.0  		0.0891837374074102 		0.8175483364412602  0.3167986309120029 		Uiso   ? 		O 		-0.60778
O 1.0  		0.5900128474073285 		0.3177446265580528  0.3189096835391375 		Uiso   ? 		O 		-0.60778
O 1.0  		0.5915762434852829 		0.8185297870252233  0.31820599933009264 		Uiso   ? 		O 		-0.60778
O 1.0  		0.2074309552558991 		0.26867209735989794  0.16353621018202902 		Uiso   ? 		O 		-0.60747
O 1.0  		0.2098531096460195 		0.7711747963490039  0.16452136807469186 		Uiso   ? 		O 		-0.60747
O 1.0  		0.7075758798515956 		0.2694081852978703  0.16438063123288288 		Uiso   ? 		O 		-0.60747
O 1.0  		0.7078226679272928 		0.7679850819511238  0.16311399965660212 		Uiso   ? 		O 		-0.60747
O 1.0  		0.1544510083240527 		0.2787319658455197  0.31567273617753105 		Uiso   ? 		O 		-1.13812
O 1.0  		0.15379089464241524 		0.7780449504367455  0.31496905196848624 		Uiso   ? 		O 		-1.13812
O 1.0  		0.6545389918517327 		0.28020414172146435  0.31496905196848624 		Uiso   ? 		O 		-1.13812
O 1.0  		0.6569282768964211 		0.7822161154185888  0.31468757828486826 		Uiso   ? 		O 		-1.13812
O 1.0  		0.20507596811457848 		0.2652370203160271  0.31806526248828365 		Uiso   ? 		O 		-0.60778
O 1.0  		0.20613337105727306 		0.7679850819511238  0.3189096835391375 		Uiso   ? 		O 		-0.60778
O 1.0  		0.7060796510224411 		0.26769064677593485  0.3189096835391375 		Uiso   ? 		O 		-0.60778
O 1.0  		0.7084689360671292 		0.7697026204730593  0.31708010459562086 		Uiso   ? 		O 		-0.60778
O 1.0  		0.33099125535058294 		0.0814603984689371  0.16353621018202902 		Uiso   ? 		O 		-0.60747
O 1.0  		0.3320310630475817 		0.580773383060163  0.16395842070745598 		Uiso   ? 		O 		-0.60747
O 1.0  		0.8308491534602377 		0.0794974973010109  0.16297326281479313 		Uiso   ? 		O 		-0.60747
O 1.0  		0.8305506025783542 		0.5842084601040337  0.16592873649278161 		Uiso   ? 		O 		-0.60747
O 1.0  		0.33109633986376796 		0.07827068407105703  0.31651715722838497 		Uiso   ? 		O 		-0.60777
O 1.0  		0.3323092919107756 		0.5817548336441261  0.31919115722275543 		Uiso   ? 		O 		-0.60777
O 1.0  		0.8326148135297382 		0.080478947884974  0.31792452564647466 		Uiso   ? 		O 		-0.60777
O 1.0  		0.8298297981248055 		0.5797919324761999  0.31820599933009264 		Uiso   ? 		O 		-0.60777
O 1.0  		0.28059185234515266 		0.1982530179605457  0.16353621018202902 		Uiso   ? 		O 		-0.60747
O 1.0  		0.2792044577330779 		0.6978113651977623  0.163676947023838 		Uiso   ? 		O 		-0.60747
O 1.0  		0.7816108093527516 		0.19776229266856415  0.16508431544192775 		Uiso   ? 		O 		-0.60747
O 1.0  		0.7819890748101774 		0.6983020904897439  0.16466210491650082 		Uiso   ? 		O 		-0.60747
O 1.0  		0.2785720351350425 		0.19506330356266566  0.31778378880466573 		Uiso   ? 		O 		-0.60777
O 1.0  		0.27794479079883716 		0.694867013445873  0.3172208414374298 		Uiso   ? 		O 		-0.60777
O 1.0  		0.7810631492492117 		0.1975169300225734  0.31862820985551954 		Uiso   ? 		O 		-0.60777
O 1.0  		0.7793405847059266 		0.6968299146137992  0.31778378880466573 		Uiso   ? 		O 		-0.60777
O 1.0  		0.3315148437315385 		0.08293257434488174  0.1282112628879763 		Uiso   ? 		O 		-0.60771
O 1.0  		0.32978348156540555 		0.5805280204141722  0.12975936814787503 		Uiso   ? 		O 		-0.60771
O 1.0  		0.8308250817376535 		0.08072431053096478  0.12919642078063912 		Uiso   ? 		O 		-0.60771
O 1.0  		0.8317750790212035 		0.5802826577681814  0.1304630523569199 		Uiso   ? 		O 		-0.60771
O 1.0  		0.3299440785886717 		0.0785160467170478  0.28316252571965783 		Uiso   ? 		O 		-0.60751
O 1.0  		0.33373098442621796 		0.580773383060163  0.28485136782136555 		Uiso   ? 		O 		-0.60751
O 1.0  		0.8317977221858524 		0.08096967317695555  0.2830217888778489 		Uiso   ? 		O 		-0.60751
O 1.0  		0.8311704778496471 		0.580773383060163  0.2837254730868937 		Uiso   ? 		O 		-0.60751
O 1.0  		0.25996746633440027 		0.32019825301796057  0.1624103154475572 		Uiso   ? 		O 		-0.61064
O 1.0  		0.257559287828958 		0.8219648640690942  0.163676947023838 		Uiso   ? 		O 		-0.61064
O 1.0  		0.7600795215846646 		0.32044361566395135  0.16409915754926493 		Uiso   ? 		O 		-0.61064
O 1.0  		0.7591259049400969 		0.8217195014231035  0.16325473649841107 		Uiso   ? 		O 		-0.61064
O 1.0  		0.2796104142741058 		0.1962901167926195  0.12792978920435835 		Uiso   ? 		O 		-0.60770
O 1.0  		0.2794081502825596 		0.696093826675827  0.13004084183149298 		Uiso   ? 		O 		-0.60770
O 1.0  		0.7783248487315122 		0.1962901167926195  0.1304630523569199 		Uiso   ? 		O 		-0.60770
O 1.0  		0.7786943165660901 		0.6951123760918638  0.13004084183149298 		Uiso   ? 		O 		-0.60770
O 1.0  		0.2781141854449512 		0.1945725782706841  0.28288105203603986 		Uiso   ? 		O 		-0.60751
O 1.0  		0.27985720234980294 		0.694867013445873  0.28259957835242194 		Uiso   ? 		O 		-0.60751
O 1.0  		0.7788067701441878 		0.1955540288546472  0.28344399940327575 		Uiso   ? 		O 		-0.60751
O 1.0  		0.7808608852576655 		0.6973206399057809  0.2830217888778489 		Uiso   ? 		O 		-0.60751
O 1.0  		0.11326224512052518 		0.3506232211208166  0.2589557889285141 		Uiso   ? 		O 		-0.60031
O 1.0  		0.11283869333380153 		0.8487093924820887  0.25754842051042437 		Uiso   ? 		O 		-0.60031
O 1.0  		0.614143248269507 		0.35283148493473354  0.2592372626121321 		Uiso   ? 		O 		-0.60031
O 1.0  		0.6131150953112268 		0.8514083815879872  0.259800209979368 		Uiso   ? 		O 		-0.60031
O 1.0  		0.25756433574791104 		0.31921680243399747  0.31806526248828365 		Uiso   ? 		O 		-0.61072
O 1.0  		0.25848146368602903 		0.8182844243792325  0.316376420386576 		Uiso   ? 		O 		-0.61072
O 1.0  		0.7572842799989485 		0.31995289037196983  0.31820599933009264 		Uiso   ? 		O 		-0.61072
O 1.0  		0.7619780875938295 		0.8214741387771126  0.31764305196285675 		Uiso   ? 		O 		-0.61072
O 1.0  		0.1549020082352548 		0.3727058592599863  0.16156589439670338 		Uiso   ? 		O 		-1.13805
O 1.0  		0.15539415582871358 		0.8717734812052214  0.16142515755489442 		Uiso   ? 		O 		-1.13805
O 1.0  		0.6553733051393139 		0.371969771322014  0.1624103154475572 		Uiso   ? 		O 		-1.13805
O 1.0  		0.6553747336972492 		0.8700559426832859  0.16114368387127645 		Uiso   ? 		O 		-1.13805
O 1.0  		0.17401721246307555 		0.2583668662282854  0.259659473137559 		Uiso   ? 		O 		-0.60031
O 1.0  		0.17523664098697164 		0.7571891255275297  0.2590965257703231 		Uiso   ? 		O 		-0.60031
O 1.0  		0.6760833462325858 		0.2608204926881932  0.259800209979368 		Uiso   ? 		O 		-0.60031
O 1.0  		0.6762491215176822 		0.7613602905093729  0.2586743152448962 		Uiso   ? 		O 		-0.60031
O 1.0  		0.11406406236467471 		0.35307684758072433  0.1880244206567907 		Uiso   ? 		O 		-0.60043
O 1.0  		0.11261972668458353 		0.8533712827559133  0.18760221013136377 		Uiso   ? 		O 		-0.60043
O 1.0  		0.6136284575113992 		0.35307684758072433  0.18886884170764456 		Uiso   ? 		O 		-0.60043
O 1.0  		0.6134261935198528 		0.8528805574639318  0.18732073644774583 		Uiso   ? 		O 		-0.60043
O 1.0  		0.1128789317441462 		0.35283148493473354  0.3418497887540004 		Uiso   ? 		O 		-0.59946
O 1.0  		0.11251232102543907 		0.8501815683580332  0.3412868413867645 		Uiso   ? 		O 		-0.59946
O 1.0  		0.613170607821308 		0.3525861222887428  0.34255347296304534 		Uiso   ? 		O 		-0.59946
O 1.0  		0.6134502652424372 		0.8516537442339779  0.34213126243761843 		Uiso   ? 		O 		-0.59946
O 1.0  		0.1763962713269805 		0.2605751300422024  0.18760221013136377 		Uiso   ? 		O 		-0.60043
O 1.0  		0.17753468706027586 		0.7613602905093729  0.18816515749859966 		Uiso   ? 		O 		-0.60043
O 1.0  		0.6753801370247328 		0.25983904210423003  0.18872810486583558 		Uiso   ? 		O 		-0.60043
O 1.0  		0.6769106637572551 		0.760133477279419  0.18703926276412786 		Uiso   ? 		O 		-0.60043
O 1.0  		0.1750796633247232 		0.2583668662282854  0.34297568348847224 		Uiso   ? 		O 		-0.59945
O 1.0  		0.17487739933317697 		0.7581705761114929  0.3426942098048543 		Uiso   ? 		O 		-0.59945
O 1.0  		0.6721182481260776 		0.2571400529983316  0.34227199927942736 		Uiso   ? 		O 		-0.59945
O 1.0  		0.6763630036537152 		0.7598881146334283  0.34016094665229274 		Uiso   ? 		O 		-0.59945
O 1.0  		0.15562049154284416 		0.3707429580920601  0.3155319993357221 		Uiso   ? 		O 		-1.13812
O 1.0  		0.15313777672368956 		0.8698105800372952  0.31510978881029517 		Uiso   ? 		O 		-1.13812
O 1.0  		0.6549395271718068 		0.3702522328000785  0.3155319993357221 		Uiso   ? 		O 		-1.13812
O 1.0  		0.6549826226980224 		0.8705466679752675  0.316376420386576 		Uiso   ? 		O 		-1.13812
O 1.0  		0.362979150297035 		0.10378839925409757  0.18717999960593684 		Uiso   ? 		O 		-0.60043
O 1.0  		0.36159175568496027 		0.6033467464913143  0.18900957854945352 		Uiso   ? 		O 		-0.60043
O 1.0  		0.8627560356160889 		0.10378839925409757  0.18746147328955481 		Uiso   ? 		O 		-0.60043
O 1.0  		0.8651693923833614 		0.604573559721268  0.18830589434040865 		Uiso   ? 		O 		-0.60043
O 1.0  		0.3628388752924584 		0.10010795956423595  0.34142757822857356 		Uiso   ? 		O 		-0.59947
O 1.0  		0.36446801006127705 		0.6018745706153695  0.34297568348847224 		Uiso   ? 		O 		-0.59947
O 1.0  		0.8622324472351334 		0.10231622337815291  0.3418497887540004 		Uiso   ? 		O 		-0.59947
O 1.0  		0.8623894248973818 		0.6011384826773973  0.3415683150703825 		Uiso   ? 		O 		-0.59947
O 1.0  		0.269767319549134 		0.16512906075179118  0.18703926276412786 		Uiso   ? 		O 		-0.60043
O 1.0  		0.2713635849725206 		0.6664049465109433  0.1880244206567907 		Uiso   ? 		O 		-0.60043
O 1.0  		0.7698705771765504 		0.16365688487584654  0.1880244206567907 		Uiso   ? 		O 		-0.60043
O 1.0  		0.7695544310489713 		0.6649327706349986  0.1880244206567907 		Uiso   ? 		O 		-0.60043
O 1.0  		0.26960297282197304 		0.16267543429188341  0.34142757822857356 		Uiso   ? 		O 		-0.59944
O 1.0  		0.2720010554895092 		0.6664049465109433  0.3426942098048543 		Uiso   ? 		O 		-0.59944
O 1.0  		0.7704511066255226 		0.16439297281381884  0.34199052559580945 		Uiso   ? 		O 		-0.59944
O 1.0  		0.7695544310489713 		0.6649327706349986  0.34213126243761843 		Uiso   ? 		O 		-0.59944
O 1.0  		0.3623000128117663 		0.10158013544018059  0.2590965257703231 		Uiso   ? 		O 		-0.60031
O 1.0  		0.36456661809757374 		0.6033467464913143  0.26050389418841285 		Uiso   ? 		O 		-0.60031
O 1.0  		0.8636629373734237 		0.10305231131612523  0.25881505208670513 		Uiso   ? 		O 		-0.60031
O 1.0  		0.8618505624166898 		0.6026106585533418  0.2593779994539411 		Uiso   ? 		O 		-0.60031
O 1.0  		0.2679599925113533 		0.1619393463539111  0.2590965257703231 		Uiso   ? 		O 		-0.60031
O 1.0  		0.27180383941691605 		0.663460594759054  0.25726694682680645 		Uiso   ? 		O 		-0.60031
O 1.0  		0.7679252962801525 		0.16316615958386496  0.2593779994539411 		Uiso   ? 		O 		-0.60031
O 1.0  		0.7681151432878333 		0.6624791441750909  0.259659473137559 		Uiso   ? 		O 		-0.60031
O 1.0  		0.09410147823650686 		0.2723525370497596  0.12961863130606605 		Uiso   ? 		O 		-0.61068
O 1.0  		0.09105350806811663 		0.7677397193051331  0.12849273657159424 		Uiso   ? 		O 		-0.61068
O 1.0  		0.5902484353802631 		0.26891746000588873  0.1310259997241558 		Uiso   ? 		O 		-0.61068
O 1.0  		0.5901031124567333 		0.7679850819511238  0.12919642078063912 		Uiso   ? 		O 		-0.61068
O 1.0  		0.2949909467904107 		0.41957012464422416  0.14608484179771614 		Uiso   ? 		O 		-0.58722
O 1.0  		0.2931545001110927 		0.9203552851113946  0.1458033681140982 		Uiso   ? 		O 		-0.58722
O 1.0  		0.7930591131079807 		0.4178525861222888  0.14706999969037893 		Uiso   ? 		O 		-0.58722
O 1.0  		0.7939850386689464 		0.9186377465894594  0.14636631548133408 		Uiso   ? 		O 		-0.58722
O 1.0  		0.29495807744497854 		0.41907939935224264  0.29892505200226305 		Uiso   ? 		O 		-0.58719
O 1.0  		0.2941095453135958 		0.9171655707135147  0.30061389410397077 		Uiso   ? 		O 		-0.58719
O 1.0  		0.7935081651752239 		0.4166257728923349  0.30342863094015027 		Uiso   ? 		O 		-0.58719
O 1.0  		0.7973367379810502 		0.9210913730493671  0.29991020989492584 		Uiso   ? 		O 		-0.58719
O 1.0  		0.10770511825551489 		0.37393267248994017  0.14777368389942383 		Uiso   ? 		O 		-0.58723
O 1.0  		0.10789496526319559 		0.8732456570811661  0.14524042074686228 		Uiso   ? 		O 		-0.58723
O 1.0  		0.6081435458141418 		0.3727058592599863  0.14664778916495202 		Uiso   ? 		O 		-0.58723
O 1.0  		0.6067890205474993 		0.8727549317891845  0.14664778916495202 		Uiso   ? 		O 		-0.58723
O 1.0  		0.10852220959940082 		0.37344194719795865  0.3004731572621617 		Uiso   ? 		O 		-0.58720
O 1.0  		0.10697046826016515 		0.8705466679752675  0.2986435783186451 		Uiso   ? 		O 		-0.58720
O 1.0  		0.6073505261928401 		0.371969771322014  0.3014583151548246 		Uiso   ? 		O 		-0.58720
O 1.0  		0.6087912425119136 		0.8725095691431938  0.30188052568025153 		Uiso   ? 		O 		-0.58720
O 1.0  		0.24687738350850896 		0.3722151339680047  0.16156589439670338 		Uiso   ? 		O 		-1.13805
O 1.0  		0.2444363356576345 		0.8734910197271568  0.16058073650404056 		Uiso   ? 		O 		-1.13805
O 1.0  		0.7458283798608292 		0.3709883207380509  0.16156589439670338 		Uiso   ? 		O 		-1.13805
O 1.0  		0.743991933181511 		0.8717734812052214  0.16114368387127645 		Uiso   ? 		O 		-1.13805
O 1.0  		0.15400977995767787 		0.23407596427519875  0.14678852600676098 		Uiso   ? 		O 		-0.58723
O 1.0  		0.15519633913614178 		0.7324074982824615  0.14721073653218794 		Uiso   ? 		O 		-0.58723
O 1.0  		0.6528950376191336 		0.23186770046128177  0.14805515758304177 		Uiso   ? 		O 		-0.58723
O 1.0  		0.6538450349026839 		0.7314260476984984  0.14692926284856997 		Uiso   ? 		O 		-0.58723
O 1.0  		0.15144230264402775 		0.23064088723132792  0.3008953677875887 		Uiso   ? 		O 		-0.58720
O 1.0  		0.1547056201006184 		0.7314260476984984  0.30075463094577976 		Uiso   ? 		O 		-0.58720
O 1.0  		0.6547176387566508 		0.23211306310727256  0.29991020989492584 		Uiso   ? 		O 		-0.58720
O 1.0  		0.6554968128361514 		0.7338796741584062  0.29991020989492584 		Uiso   ? 		O 		-0.58720
O 1.0  		0.2800417574366643 		0.07900677200902935  0.28274031519423093 		Uiso   ? 		O 		-0.61069
O 1.0  		0.28087787258418145 		0.5800372951221906  0.2841476836123207 		Uiso   ? 		O 		-0.61069
O 1.0  		0.7795163421699401 		0.07925213465502012  0.28428842045412966 		Uiso   ? 		O 		-0.61069
O 1.0  		0.7796580457324522 		0.5810187457061537  0.28485136782136555 		Uiso   ? 		O 		-0.61069
O 1.0  		0.09132151075052719 		0.26891746000588873  0.28428842045412966 		Uiso   ? 		O 		-0.61069
O 1.0  		0.09111044913613303 		0.7670036313671607  0.28203663098518605 		Uiso   ? 		O 		-0.61069
O 1.0  		0.5920951082403645 		0.26793600942192564  0.28274031519423093 		Uiso   ? 		O 		-0.61069
O 1.0  		0.5953102822517864 		0.7711747963490039  0.28259957835242194 		Uiso   ? 		O 		-0.61069
O 1.0  		0.4288591547380358 		0.28314849347335364  0.14721073653218794 		Uiso   ? 		O 		-0.58722
O 1.0  		0.42882123747365053 		0.7854058298164688  0.14692926284856997 		Uiso   ? 		O 		-0.58722
O 1.0  		0.9310720399890112 		0.28462066934929825  0.14636631548133408 		Uiso   ? 		O 		-0.58722
O 1.0  		0.9294064165137426 		0.7831975660025519  0.14664778916495202 		Uiso   ? 		O 		-0.58722
O 1.0  		0.4281800172527671 		0.28094022965943666  0.2996287362113079 		Uiso   ? 		O 		-0.58719
O 1.0  		0.42890225026425133 		0.7834429286485426  0.3024434730474874 		Uiso   ? 		O 		-0.58719
O 1.0  		0.930500308162887 		0.28560211993326134  0.30117684147120666 		Uiso   ? 		O 		-0.58719
O 1.0  		0.9298073251358172 		0.7844243792325057  0.2979398941096002 		Uiso   ? 		O 		-0.58719
O 1.0  		0.24416315471339367 		0.369761507508097  0.31539126249391314 		Uiso   ? 		O 		-1.13813
O 1.0  		0.24475391034314908 		0.8703013053292767  0.3145468414430593 		Uiso   ? 		O 		-1.13813
O 1.0  		0.7432697001700268 		0.3692707822161154  0.31567273617753105 		Uiso   ? 		O 		-1.13813
O 1.0  		0.7494356648714781 		0.8737363823731475  0.3155319993357221 		Uiso   ? 		O 		-1.13813
O 1.0  		0.38492905559188156 		0.09839042104230053  0.1458033681140982 		Uiso   ? 		O 		-0.58723
O 1.0  		0.38484947135921616 		0.5984394935714987  0.14664778916495202 		Uiso   ? 		O 		-0.58723
O 1.0  		0.8847957513243841 		0.09814505839630976  0.1458033681140982 		Uiso   ? 		O 		-0.58723
O 1.0  		0.8842671150244755 		0.5994209441554619  0.14988473652655845 		Uiso   ? 		O 		-0.58723
O 1.0  		0.3802519506546725 		0.0920109922465404  0.29836210463502716 		Uiso   ? 		O 		-0.58720
O 1.0  		0.3852087130130109 		0.5974580429875357  0.3032878940983412 		Uiso   ? 		O 		-0.58720
O 1.0  		0.8862174438398266 		0.09716360781234666  0.299487999369499 		Uiso   ? 		O 		-0.58720
O 1.0  		0.8837347290206718 		0.5962312297575818  0.2997694730531169 		Uiso   ? 		O 		-0.58720
O 1.0  		0.24327129973781747 		0.14231033467464912  0.14636631548133408 		Uiso   ? 		O 		-0.58723
O 1.0  		0.2435028137137782 		0.643831583079792  0.14721073653218794 		Uiso   ? 		O 		-0.58723
O 1.0  		0.7435060347469626 		0.14280105996663067  0.14918105231751358 		Uiso   ? 		O 		-0.58723
O 1.0  		0.742274189239201 		0.6430954951418196  0.14833663126665975 		Uiso   ? 		O 		-0.58723
O 1.0  		0.24354952860101137 		0.14329178525861222  0.2996287362113079 		Uiso   ? 		O 		-0.58720
O 1.0  		0.24413148660791886 		0.6421140445578566  0.29934726252768995 		Uiso   ? 		O 		-0.58720
O 1.0  		0.7419857341952237 		0.14231033467464912  0.30173978883844255 		Uiso   ? 		O 		-0.58720
O 1.0  		0.7414811696178993 		0.6423594072038473  0.3000509467367349 		Uiso   ? 		O 		-0.58720
O 1.0  		0.27779417595448824 		0.07876140936303858  0.316376420386576 		Uiso   ? 		O 		-0.61071
O 1.0  		0.28103342168849454 		0.580773383060163  0.3196133677481824 		Uiso   ? 		O 		-0.61071
O 1.0  		0.7789446103438159 		0.08023358523898323  0.31919115722275543 		Uiso   ? 		O 		-0.61071
O 1.0  		0.7792900064558097 		0.5802826577681814  0.3183467361719016 		Uiso   ? 		O 		-0.61071
O 1.0  		0.24407214305998765 		0.09716360781234666  0.1484773681084687 		Uiso   ? 		O 		-0.58704
O 1.0  		0.24253799696644776 		0.5977034056335264  0.14721073653218794 		Uiso   ? 		O 		-0.58704
O 1.0  		0.7421731787229897 		0.09593679458239279  0.14833663126665975 		Uiso   ? 		O 		-0.58704
O 1.0  		0.7417343528365296 		0.596967317695554  0.14706999969037893 		Uiso   ? 		O 		-0.58704
O 1.0  		0.24188150264582797 		0.09618215722838357  0.2987843151604541 		Uiso   ? 		O 		-0.58710
O 1.0  		0.24350183979179885 		0.5962312297575818  0.3031471572565323 		Uiso   ? 		O 		-0.58710
O 1.0  		0.7428435185854105 		0.09642751987437434  0.3014583151548246 		Uiso   ? 		O 		-0.58710
O 1.0  		0.7423148822855018 		0.5977034056335264  0.30061389410397077 		Uiso   ? 		O 		-0.58710
O 1.0  		0.43076216804617495 		0.14500932378054765  0.14566263127228918 		Uiso   ? 		O 		-0.58704
O 1.0  		0.4289257213668569 		0.6457944842477182  0.1473514733739969 		Uiso   ? 		O 		-0.58704
O 1.0  		0.9291173608497867 		0.14599077436451074  0.1462255786395251 		Uiso   ? 		O 		-0.58704
O 1.0  		0.9289720379262569 		0.6450583963097458  0.14932178915932254 		Uiso   ? 		O 		-0.58704
O 1.0  		0.4275724943152726 		0.1386298949847875  0.2996287362113079 		Uiso   ? 		O 		-0.58711
O 1.0  		0.43018306715513827 		0.6423594072038473  0.30188052568025153 		Uiso   ? 		O 		-0.58711
O 1.0  		0.930539053365229 		0.14500932378054765  0.2976584204259823 		Uiso   ? 		O 		-0.58711
O 1.0  		0.9290442530940097 		0.6413779566198842  0.29991020989492584 		Uiso   ? 		O 		-0.58711
O 1.0  		0.3836973560681425 		0.28462066934929825  0.1458033681140982 		Uiso   ? 		O 		-0.58704
O 1.0  		0.38186090938882444 		0.7854058298164688  0.1479144207412328 		Uiso   ? 		O 		-0.58704
O 1.0  		0.886335221663777 		0.2860928452252429  0.14481821022143535 		Uiso   ? 		O 		-0.58704
O 1.0  		0.8857408466730039 		0.7863872804004319  0.14721073653218794 		Uiso   ? 		O 		-0.58704
O 1.0  		0.38356587868641373 		0.28265776818137206  0.29991020989492584 		Uiso   ? 		O 		-0.58710
O 1.0  		0.3826122620418459 		0.7839336539405242  0.30061389410397077 		Uiso   ? 		O 		-0.58710
O 1.0  		0.8843482737990989 		0.2833938561193444  0.3032878940983412 		Uiso   ? 		O 		-0.58710
O 1.0  		0.8839992583260875 		0.784179016586515  0.30117684147120666 		Uiso   ? 		O 		-0.58710
O 1.0  		0.10811190273449946 		0.23407596427519875  0.14664778916495202 		Uiso   ? 		O 		-0.58704
O 1.0  		0.11005861218883284 		0.7326528609284524  0.14692926284856997 		Uiso   ? 		O 		-0.58704
O 1.0  		0.6077003696038081 		0.23284915104524487  0.14777368389942383 		Uiso   ? 		O 		-0.58704
O 1.0  		0.60889572640512 		0.7328982235744431  0.14650705232314304 		Uiso   ? 		O 		-0.58704
O 1.0  		0.10606801380180496 		0.23211306310727256  0.299487999369499 		Uiso   ? 		O 		-0.58710
O 1.0  		0.10798185391070608 		0.7301992344685445  0.2996287362113079 		Uiso   ? 		O 		-0.58710
O 1.0  		0.6082392320845003 		0.23137697516930023  0.29892505200226305 		Uiso   ? 		O 		-0.58710
O 1.0  		0.6086174975419261 		0.73191677299048  0.3008953677875887 		Uiso   ? 		O 		-0.58710
O 1.0  		0.15365211284584127 		0.41907939935224264  0.14552189443048022 		Uiso   ? 		O 		-0.58704
O 1.0  		0.1514804962353128 		0.9196191971734224  0.14833663126665975 		Uiso   ? 		O 		-0.58704
O 1.0  		0.6527345865798901 		0.419815487290215  0.14749221021580589 		Uiso   ? 		O 		-0.58704
O 1.0  		0.6528258255512742 		0.9176562960054963  0.1484773681084687 		Uiso   ? 		O 		-0.58704
O 1.0  		0.15413403425851682 		0.41834331141427034  0.30103610462939767 		Uiso   ? 		O 		-0.58710
O 1.0  		0.15134901885358404 		0.9176562960054963  0.29920652568588096 		Uiso   ? 		O 		-0.58710
O 1.0  		0.6523008086123832 		0.41809794876827955  0.2997694730531169 		Uiso   ? 		O 		-0.58710
O 1.0  		0.654043825517235 		0.9183923839434684  0.30173978883844255 		Uiso   ? 		O 		-0.58710
O 1.0  		0.2951214502501601 		0.37393267248994017  0.14495894706324433 		Uiso   ? 		O 		-0.58704
O 1.0  		0.29370998391550107 		0.8747178329571107  0.14524042074686228 		Uiso   ? 		O 		-0.58704
O 1.0  		0.7961163355351748 		0.3746687604279125  0.14833663126665975 		Uiso   ? 		O 		-0.58704
O 1.0  		0.7949983721634462 		0.8734910197271568  0.14706999969037893 		Uiso   ? 		O 		-0.58704
O 1.0  		0.2933557901806595 		0.37295122190597707  0.30173978883844255 		Uiso   ? 		O 		-0.58711
O 1.0  		0.2928095586350549 		0.8707920306212583  0.2980806309514092 		Uiso   ? 		O 		-0.58711
O 1.0  		0.7934261784626438 		0.3709883207380509  0.30173978883844255 		Uiso   ? 		O 		-0.58711
O 1.0  		0.7955131629215538 		0.8732456570811661  0.29920652568588096 		Uiso   ? 		O 		-0.58711
O 1.0  		0.3991942378504625 		0.19874374325252728  0.14678852600676098 		Uiso   ? 		O 		-0.92972
O 1.0  		0.3967772617221722 		0.6987928157817254  0.14706999969037893 		Uiso   ? 		O 		-0.92972
O 1.0  		0.8985790121702896 		0.19923446854450882  0.14636631548133408 		Uiso   ? 		O 		-0.92972
O 1.0  		0.8991938395226293 		0.6985474531357346  0.14692926284856997 		Uiso   ? 		O 		-0.92972
O 1.0  		0.3974767212261304 		0.19530866620865642  0.3001916835785438 		Uiso   ? 		O 		-0.92971
O 1.0  		0.3996951830667692 		0.6995289037196978  0.30103610462939767 		Uiso   ? 		O 		-0.92971
O 1.0  		0.8997882145134023 		0.1982530179605457  0.3003324204203528 		Uiso   ? 		O 		-0.92971
O 1.0  		0.8984577609693442 		0.6970752772597901  0.30103610462939767 		Uiso   ? 		O 		-0.92971
O 1.0  		0.25775275419765636 		0.32044361566395135  0.1276483155207404 		Uiso   ? 		O 		-0.61067
O 1.0  		0.25849905893172487 		0.8217195014231035  0.1293371576224481 		Uiso   ? 		O 		-0.61067
O 1.0  		0.7596545412400056 		0.32044361566395135  0.12975936814787503 		Uiso   ? 		O 		-0.61067
O 1.0  		0.7599429962839828 		0.8212287761311219  0.12863347341340323 		Uiso   ? 		O 		-0.61067
O 1.0  		0.3298655006030193 		0.19947983119049956  0.1458033681140982 		Uiso   ? 		O 		-0.92972
O 1.0  		0.3279873869554212 		0.6980567278437532  0.14608484179771614 		Uiso   ? 		O 		-0.92972
O 1.0  		0.8309173269560504 		0.19947983119049956  0.14692926284856997 		Uiso   ? 		O 		-0.92972
O 1.0  		0.8278869520333559 		0.6983020904897439  0.14706999969037893 		Uiso   ? 		O 		-0.92972
O 1.0  		0.32867157235964295 		0.1975169300225734  0.2997694730531169 		Uiso   ? 		O 		-0.92971
O 1.0  		0.3288942887127557 		0.6973206399057809  0.3003324204203528 		Uiso   ? 		O 		-0.92971
O 1.0  		0.8305492876794078 		0.19874374325252728  0.2997694730531169 		Uiso   ? 		O 		-0.92971
O 1.0  		0.8314423438949414 		0.6990381784277163  0.3008953677875887 		Uiso   ? 		O 		-0.92971
O 1.0  		0.33072279803221627 		0.12979683972911965  0.14538115758867123 		Uiso   ? 		O 		-0.92972
O 1.0  		0.32909004390237984 		0.6288644616743548  0.14594410495590715 		Uiso   ? 		O 		-0.92972
O 1.0  		0.8291590036264287 		0.12881538914515656  0.14636631548133408 		Uiso   ? 		O 		-0.92972
O 1.0  		0.8294474586704059 		0.629600549612327  0.14552189443048022 		Uiso   ? 		O 		-0.92972
O 1.0  		0.3276646016830427 		0.12538031210128572  0.30075463094577976 		Uiso   ? 		O 		-0.92971
O 1.0  		0.33073302421299955 		0.629600549612327  0.30131757831301564 		Uiso   ? 		O 		-0.92971
O 1.0  		0.8301228464517798 		0.1273432132692119  0.30117684147120666 		Uiso   ? 		O 		-0.92971
O 1.0  		0.8269128507021879 		0.6266561978604377  0.30173978883844255 		Uiso   ? 		O 		-0.92971
O 1.0  		0.25923138778111515 		0.3187260771420159  0.2830217888778489 		Uiso   ? 		O 		-0.61069
O 1.0  		0.25613527416755627 		0.8165668858572971  0.2817551573015681 		Uiso   ? 		O 		-0.61069
O 1.0  		0.7579458222385216 		0.3187260771420159  0.2837254730868937 		Uiso   ? 		O 		-0.61069
O 1.0  		0.757171826420851 		0.8195112376091864  0.28288105203603986 		Uiso   ? 		O 		-0.61069
O 1.0  		0.3147953196913391 		0.15531455491216017  0.23840821002440377 		Uiso   ? 		O 		-0.55471
O 1.0  		0.3166040752870552 		0.6565904406713123  0.23897115739163965 		Uiso   ? 		O 		-0.55471
O 1.0  		0.8147036823921219 		0.1572774560800864  0.2393933679170666 		Uiso   ? 		O 		-0.55471
O 1.0  		0.8136426600884095 		0.6553636274413583  0.23967484160068456 		Uiso   ? 		O 		-0.55471
O 1.0  		0.20749033112886398 		0.3869368927274512  0.14721073653218794 		Uiso   ? 		O 		-0.92972
O 1.0  		0.20894864269363328 		0.8909117675925018  0.14566263127228918 		Uiso   ? 		O 		-0.92972
O 1.0  		0.7085268833821587 		0.38988124447934047  0.14692926284856997 		Uiso   ? 		O 		-0.92972
O 1.0  		0.7092643904933793 		0.8894395917165572  0.1462255786395251 		Uiso   ? 		O 		-0.92972
O 1.0  		0.20946848137069413 		0.3879183433114143  0.30061389410397077 		Uiso   ? 		O 		-0.92971
O 1.0  		0.20689595613809086 		0.8872313279026403  0.30075463094577976 		Uiso   ? 		O 		-0.92971
O 1.0  		0.7073570268613667 		0.38669153008146046  0.29991020989492584 		Uiso   ? 		O 		-0.92971
O 1.0  		0.7098032529740713 		0.8879674158406126  0.3003324204203528 		Uiso   ? 		O 		-0.92971
O 1.0  		0.20835642618090888 		0.3189714397880067  0.1462255786395251 		Uiso   ? 		O 		-0.92972
O 1.0  		0.20968326036394944 		0.8209834134851312  0.14538115758867123 		Uiso   ? 		O 		-0.92972
O 1.0  		0.7091628930161783 		0.31848071449602516  0.1473514733739969 		Uiso   ? 		O 		-0.92972
O 1.0  		0.7091402498515295 		0.8177936990872511  0.14636631548133408 		Uiso   ? 		O 		-0.92972
O 1.0  		0.2094670204877251 		0.316517813328099  0.30117684147120666 		Uiso   ? 		O 		-0.92971
O 1.0  		0.20807962587565038 		0.8160761605653156  0.30075463094577976 		Uiso   ? 		O 		-0.92971
O 1.0  		0.709833232878599 		0.3189714397880067  0.30075463094577976 		Uiso   ? 		O 		-0.92971
O 1.0  		0.710914707543878 		0.8204926881931495  0.30075463094577976 		Uiso   ? 		O 		-0.92971
O 1.0  		0.13839021841647708 		0.319707527725979  0.1462255786395251 		Uiso   ? 		O 		-0.92972
O 1.0  		0.13985500645813492 		0.819020512317205  0.14636631548133408 		Uiso   ? 		O 		-0.92972
O 1.0  		0.6383138552169962 		0.3187260771420159  0.14763294705761484 		Uiso   ? 		O 		-0.92972
O 1.0  		0.6392967218459785 		0.8187751496712141  0.14650705232314304 		Uiso   ? 		O 		-0.92972
O 1.0  		0.1387406624474239 		0.3170085386200805  0.30131757831301564 		Uiso   ? 		O 		-0.92971
O 1.0  		0.13868514993734282 		0.8158307979193249  0.2997694730531169 		Uiso   ? 		O 		-0.92971
O 1.0  		0.6390323385245855 		0.3167631759740897  0.30061389410397077 		Uiso   ? 		O 		-0.92971
O 1.0  		0.6395332837408922 		0.8175483364412602  0.30131757831301564 		Uiso   ? 		O 		-0.92971
O 1.0  		0.20716493274248085 		0.43600942192560604  0.12863347341340323 		Uiso   ? 		O 		-0.61067
O 1.0  		0.20581040747583823 		0.9360584944548043  0.12905568393883016 		Uiso   ? 		O 		-0.61067
O 1.0  		0.7060349163042002 		0.4367455098635784  0.13004084183149298 		Uiso   ? 		O 		-0.61067
O 1.0  		0.7047942731735907 		0.935322406516832  0.12891494709702117 		Uiso   ? 		O 		-0.61067
O 1.0  		0.1765746585888868 		0.4139267837864364  0.2593779994539411 		Uiso   ? 		O 		-0.58406
O 1.0  		0.1742298976283495 		0.910295416625773  0.25754842051042437 		Uiso   ? 		O 		-0.58406
O 1.0  		0.6757710144589687 		0.4131906958484641  0.2589557889285141 		Uiso   ? 		O 		-0.58406
O 1.0  		0.6743026070562932 		0.9147119442536069  0.26106684155564874 		Uiso   ? 		O 		-0.58406
O 1.0  		0.20722187381049734 		0.43527333398763374  0.28428842045412966 		Uiso   ? 		O 		-0.61069
O 1.0  		0.2044039890601324 		0.9340955932868781  0.28203663098518605 		Uiso   ? 		O 		-0.61069
O 1.0  		0.7057478898181584 		0.43404652075767985  0.28274031519423093 		Uiso   ? 		O 		-0.61069
O 1.0  		0.7080385668265501 		0.9345863185788597  0.2844291572959386 		Uiso   ? 		O 		-0.61069
O 1.0  		0.4462684480713215 		0.1972715673765826  0.12835199972978528 		Uiso   ? 		O 		-0.61067
O 1.0  		0.44637728228840134 		0.6985474531357346  0.129900104989684 		Uiso   ? 		O 		-0.61067
O 1.0  		0.9462249542172729 		0.19678084208460106  0.12905568393883016 		Uiso   ? 		O 		-0.61067
O 1.0  		0.9463249908115048 		0.6963391893218177  0.13004084183149298 		Uiso   ? 		O 		-0.61067
O 1.0  		0.42408332810554117 		0.16267543429188341  0.2585335784030872 		Uiso   ? 		O 		-0.58406
O 1.0  		0.42617031256445115 		0.6649327706349986  0.2593779994539411 		Uiso   ? 		O 		-0.58406
O 1.0  		0.9242370503240855 		0.16512906075179118  0.2589557889285141 		Uiso   ? 		O 		-0.58406
O 1.0  		0.9245255053680628 		0.6659142212189617  0.25768915735223336 		Uiso   ? 		O 		-0.58406
O 1.0  		0.4448203626873355 		0.19310040239473944  0.28316252571965783 		Uiso   ? 		O 		-0.61069
O 1.0  		0.44805960842134185 		0.6951123760918638  0.28428842045412966 		Uiso   ? 		O 		-0.61069
O 1.0  		0.9460453333903754 		0.1972715673765826  0.282177367826995 		Uiso   ? 		O 		-0.61069
O 1.0  		0.9481147226035896 		0.696093826675827  0.282177367826995 		Uiso   ? 		O 		-0.61069
O 1.0  		0.2061024818808332 		0.43600942192560604  0.16353621018202902 		Uiso   ? 		O 		-0.61064
O 1.0  		0.20532848606316284 		0.9367945823927766  0.16339547334022006 		Uiso   ? 		O 		-0.61064
O 1.0  		0.7068279359255019 		0.4374815978015507  0.16438063123288288 		Uiso   ? 		O 		-0.61064
O 1.0  		0.7064372534842104 		0.9360584944548043  0.16381768386564696 		Uiso   ? 		O 		-0.61064
O 1.0  		0.17542239731379047 		0.41417214643242717  0.1880244206567907 		Uiso   ? 		O 		-0.58420
O 1.0  		0.17507338184077909 		0.9149573068995978  0.18746147328955481 		Uiso   ? 		O 		-0.58420
O 1.0  		0.6779945242185605 		0.4146628717244087  0.18886884170764456 		Uiso   ? 		O 		-0.58420
O 1.0  		0.6763048290207075 		0.9144665816076161  0.18816515749859966 		Uiso   ? 		O 		-0.58420
O 1.0  		0.20734455356937817 		0.4355186966336245  0.31862820985551954 		Uiso   ? 		O 		-0.61070
O 1.0  		0.204068819128922 		0.9338502306408873  0.31764305196285675 		Uiso   ? 		O 		-0.61070
O 1.0  		0.7060918573722167 		0.43600942192560604  0.31778378880466573 		Uiso   ? 		O 		-0.61070
O 1.0  		0.7074098939324093 		0.936303857100795  0.31862820985551954 		Uiso   ? 		O 		-0.61070
O 1.0  		0.17517703779602872 		0.4136814211404456  0.3418497887540004 		Uiso   ? 		O 		-0.58277
O 1.0  		0.17235915304566374 		0.9125036804396899  0.34086463086133767 		Uiso   ? 		O 		-0.58277
O 1.0  		0.6753131647688774 		0.4126999705564825  0.34213126243761843 		Uiso   ? 		O 		-0.58277
O 1.0  		0.6742039990199966 		0.9132397683776623  0.34199052559580945 		Uiso   ? 		O 		-0.58277
O 1.0  		0.4466276897251162 		0.1962901167926195  0.16381768386564696 		Uiso   ? 		O 		-0.61064
O 1.0  		0.44643422335641786 		0.6978113651977623  0.16564726280916367 		Uiso   ? 		O 		-0.61064
O 1.0  		0.945129634010193 		0.1962901167926195  0.16409915754926493 		Uiso   ? 		O 		-0.61064
O 1.0  		0.9459833444034058 		0.7007557169496517  0.16466210491650082 		Uiso   ? 		O 		-0.61064
O 1.0  		0.4248851453496907 		0.16512906075179118  0.18816515749859966 		Uiso   ? 		O 		-0.58420
O 1.0  		0.42444631946323064 		0.6661595838649524  0.18943178907488045 		Uiso   ? 		O 		-0.58420
O 1.0  		0.9246949000141769 		0.16561978604377273  0.1884466311822176 		Uiso   ? 		O 		-0.58420
O 1.0  		0.9248037342312567 		0.6668956718029247  0.18774294697317276 		Uiso   ? 		O 		-0.58420
O 1.0  		0.4443055719292277 		0.19334576504073023  0.31778378880466573 		Uiso   ? 		O 		-0.61071
O 1.0  		0.44873874590661045 		0.6973206399057809  0.31933189406456447 		Uiso   ? 		O 		-0.61071
O 1.0  		0.9479489473184934 		0.1955540288546472  0.316376420386576 		Uiso   ? 		O 		-0.61071
O 1.0  		0.945654650949084 		0.6958484640298361  0.3173615782792388 		Uiso   ? 		O 		-0.61071
O 1.0  		0.4228324587941483 		0.16144862106192956  0.3418497887540004 		Uiso   ? 		O 		-0.58277
O 1.0  		0.426726770290839 		0.6668956718029247  0.3438201045393261 		Uiso   ? 		O 		-0.58277
O 1.0  		0.9238778086702909 		0.16611051133575427  0.3412868413867645 		Uiso   ? 		O 		-0.58277
O 1.0  		0.9233885181927028 		0.6632152321130631  0.3417090519121915 		Uiso   ? 		O 		-0.58277
O 1.0  		0.26843629771013067 		0.10084404750220827  0.2585335784030872 		Uiso   ? 		O 		-0.58406
O 1.0  		0.27233708568370985 		0.6016292079693788  0.2592372626121321 		Uiso   ? 		O 		-0.58406
O 1.0  		0.7701015228575662 		0.10207086073216214  0.26036315734660387 		Uiso   ? 		O 		-0.58406
O 1.0  		0.7694742785213609 		0.6018745706153695  0.259800209979368 		Uiso   ? 		O 		-0.58406
O 1.0  		0.36851366632243004 		0.15310629109824322  0.23840821002440377 		Uiso   ? 		O 		-0.55471
O 1.0  		0.3706904611947887 		0.6551182647953676  0.23981557844249352 		Uiso   ? 		O 		-0.55471
O 1.0  		0.8719774208847983 		0.15580528020414175  0.23798599949897686 		Uiso   ? 		O 		-0.55471
O 1.0  		0.8699284840331507 		0.6565904406713123  0.23911189423344867 		Uiso   ? 		O 		-0.55471
O 1.0  		0.25648672444551607 		0.4347826086956522  0.12975936814787503 		Uiso   ? 		O 		-0.60771
O 1.0  		0.25748718632019413 		0.9382667582687212  0.12849273657159424 		Uiso   ? 		O 		-0.60771
O 1.0  		0.7569010802815586 		0.4347826086956522  0.12947789446425706 		Uiso   ? 		O 		-0.60771
O 1.0  		0.7572793457389845 		0.935322406516832  0.12877421025521218 		Uiso   ? 		O 		-0.60771
O 1.0  		0.2660242235167709 		0.4122092452645009  0.2589557889285141 		Uiso   ? 		O 		-0.60031
O 1.0  		0.26609139076557065 		0.9112768672097361  0.25839284156127823 		Uiso   ? 		O 		-0.60031
O 1.0  		0.7687518995258541 		0.41343605849445486  0.259659473137559 		Uiso   ? 		O 		-0.60031
O 1.0  		0.7702254851903598 		0.9144665816076161  0.25881505208670513 		Uiso   ? 		O 		-0.60031
O 1.0  		0.2596500053078747 		0.43600942192560604  0.2833032625614668 		Uiso   ? 		O 		-0.60751
O 1.0  		0.2570117413844071 		0.9343409559328688  0.2830217888778489 		Uiso   ? 		O 		-0.60751
O 1.0  		0.7584454525558818 		0.43404652075767985  0.2844291572959386 		Uiso   ? 		O 		-0.60751
O 1.0  		0.7602630057744458 		0.9370399450387673  0.28259957835242194 		Uiso   ? 		O 		-0.60751
O 1.0  		0.4463768276524453 		0.24806163509667287  0.12849273657159424 		Uiso   ? 		O 		-0.60770
O 1.0  		0.4462162306291792 		0.7500736087937973  0.12961863130606605 		Uiso   ? 		O 		-0.60770
O 1.0  		0.9461296412489151 		0.24928844832662678  0.129900104989684 		Uiso   ? 		O 		-0.60770
O 1.0  		0.946654658187806 		0.7488467955638435  0.12919642078063912 		Uiso   ? 		O 		-0.60770
O 1.0  		0.423103837878453 		0.25591323976837765  0.25825210471946924 		Uiso   ? 		O 		-0.60031
O 1.0  		0.42409550213028324 		0.7576798508195113  0.2593779994539411 		Uiso   ? 		O 		-0.60031
O 1.0  		0.9230691416472522 		0.2571400529983316  0.2590965257703231 		Uiso   ? 		O 		-0.60031
O 1.0  		0.9238066487584728 		0.7566984002355482  0.2590965257703231 		Uiso   ? 		O 		-0.60031
O 1.0  		0.44475791906440987 		0.24609873392874668  0.28259957835242194 		Uiso   ? 		O 		-0.60751
O 1.0  		0.4473684919042755 		0.7498282461478065  0.2835847362450848 		Uiso   ? 		O 		-0.60751
O 1.0  		0.9460727001808985 		0.2500245362645991  0.2835847362450848 		Uiso   ? 		O 		-0.60751
O 1.0  		0.9471365796004816 		0.7481107076258711  0.28288105203603986 		Uiso   ? 		O 		-0.60751
O 1.0  		0.2580968354107036 		0.43502797134164295  0.1648028417583098 		Uiso   ? 		O 		-0.60748
O 1.0  		0.25736450656131327 		0.9380213956227305  0.16339547334022006 		Uiso   ? 		O 		-0.60748
O 1.0  		0.7592144004545992 		0.43600942192560604  0.16452136807469186 		Uiso   ? 		O 		-0.60748
O 1.0  		0.7585959537412418 		0.937530670330749  0.16325473649841107 		Uiso   ? 		O 		-0.60748
O 1.0  		0.2698907135869826 		0.41441750907841796  0.18886884170764456 		Uiso   ? 		O 		-0.60043
O 1.0  		0.2679315871487836 		0.9149573068995978  0.1868985259223189 		Uiso   ? 		O 		-0.60043
O 1.0  		0.7695777884925878 		0.4146628717244087  0.18872810486583558 		Uiso   ? 		O 		-0.60043
O 1.0  		0.7685584331571557 		0.9149573068995978  0.18732073644774583 		Uiso   ? 		O 		-0.60043
O 1.0  		0.25861162616881134 		0.4347826086956522  0.31792452564647466 		Uiso   ? 		O 		-0.60778
O 1.0  		0.2557039310049977 		0.9338502306408873  0.3183467361719016 		Uiso   ? 		O 		-0.60778
O 1.0  		0.7569908906950072 		0.43453724604966143  0.31933189406456447 		Uiso   ? 		O 		-0.60778
O 1.0  		0.759167685567366 		0.9365492197467858  0.31820599933009264 		Uiso   ? 		O 		-0.60778
O 1.0  		0.27212949744631076 		0.4129453332024733  0.3403016834941017 		Uiso   ? 		O 		-0.59943
O 1.0  		0.26730939073153137 		0.9120129551477084  0.3415683150703825 		Uiso   ? 		O 		-0.59943
O 1.0  		0.7672556706966993 		0.4117185199725194  0.3417090519121915 		Uiso   ? 		O 		-0.59943
O 1.0  		0.7708388839847641 		0.9156933948375701  0.3417090519121915 		Uiso   ? 		O 		-0.59943
O 1.0  		0.4472508600643478 		0.24683482186671904  0.1625510522893662 		Uiso   ? 		O 		-0.60747
O 1.0  		0.445055171731235 		0.7486014329178526  0.16395842070745598 		Uiso   ? 		O 		-0.60747
O 1.0  		0.9475601313872052 		0.2500245362645991  0.16466210491650082 		Uiso   ? 		O 		-0.60747
O 1.0  		0.9483064361212736 		0.7513004220237511  0.16325473649841107 		Uiso   ? 		O 		-0.60747
O 1.0  		0.42370843905000943 		0.25542251447639613  0.18717999960593684 		Uiso   ? 		O 		-0.60043
O 1.0  		0.42352377030415894 		0.7586613014034744  0.18788368381498172 		Uiso   ? 		O 		-0.60043
O 1.0  		0.9247361936804563 		0.25664932770635  0.18886884170764456 		Uiso   ? 		O 		-0.60043
O 1.0  		0.9259820150728961 		0.7606242025714006  0.18732073644774583 		Uiso   ? 		O 		-0.60043
O 1.0  		0.44566482082174447 		0.2453626459907744  0.3172208414374298 		Uiso   ? 		O 		-0.60777
O 1.0  		0.44665648507357464 		0.747129257041908  0.3190504203809465 		Uiso   ? 		O 		-0.60777
O 1.0  		0.9464472159344296 		0.24609873392874668  0.31806526248828365 		Uiso   ? 		O 		-0.60777
O 1.0  		0.9453380501855488 		0.7466385317499264  0.31764305196285675 		Uiso   ? 		O 		-0.60777
O 1.0  		0.42407647832665196 		0.25615860241436844  0.34199052559580945 		Uiso   ? 		O 		-0.59947
O 1.0  		0.423628854817344 		0.7554715870055944  0.34339789401389914 		Uiso   ? 		O 		-0.59947
O 1.0  		0.9244996317855425 		0.25787614093630384  0.34241273612123635 		Uiso   ? 		O 		-0.59947
O 1.0  		0.9231363088960519 		0.7562076749435667  0.3415683150703825 		Uiso   ? 		O 		-0.59947
O 1.0  		0.3626098774554014 		0.25689469035234075  0.2589557889285141 		Uiso   ? 		O 		-0.58406
O 1.0  		0.3607646331532354 		0.7559623122975758  0.25825210471946924 		Uiso   ? 		O 		-0.58406
O 1.0  		0.862051592843245 		0.25664932770635  0.2592372626121321 		Uiso   ? 		O 		-0.58406
O 1.0  		0.8647103091282793 		0.757925213465502  0.2589557889285141 		Uiso   ? 		O 		-0.58406
O 1.0  		0.2708241541968835 		0.10476984983806066  0.18703926276412786 		Uiso   ? 		O 		-0.58420
O 1.0  		0.2714630532718075 		0.6028560211993327  0.18760221013136377 		Uiso   ? 		O 		-0.58420
O 1.0  		0.7711399019966295 		0.10329767396211602  0.18929105223307147 		Uiso   ? 		O 		-0.58420
O 1.0  		0.77187740910785 		0.6028560211993327  0.18830589434040865 		Uiso   ? 		O 		-0.58420
O 1.0  		0.2705042583654095 		0.10158013544018059  0.34199052559580945 		Uiso   ? 		O 		-0.58276
O 1.0  		0.2686437399635071 		0.603592109137305  0.34213126243761843 		Uiso   ? 		O 		-0.58276
O 1.0  		0.7709843528923165 		0.10256158602414368  0.3431164203302812 		Uiso   ? 		O 		-0.58276
O 1.0  		0.7687141282454913 		0.6016292079693788  0.34213126243761843 		Uiso   ? 		O 		-0.58276
O 1.0  		0.3665990472844939 		0.2593483168122485  0.18647631539689197 		Uiso   ? 		O 		-0.58420
O 1.0  		0.3613210908796232 		0.757925213465502  0.18760221013136377 		Uiso   ? 		O 		-0.58420
O 1.0  		0.8658611418454402 		0.2595936794582393  0.18746147328955481 		Uiso   ? 		O 		-0.58420
O 1.0  		0.8640158975432741 		0.7586613014034744  0.1880244206567907 		Uiso   ? 		O 		-0.58420
O 1.0  		0.3617182497978032 		0.2546864265384238  0.34086463086133767 		Uiso   ? 		O 		-0.58278
O 1.0  		0.3603308551857285 		0.7542447737756404  0.34283494664666325 		Uiso   ? 		O 		-0.58278
O 1.0  		0.8639728020170586 		0.2583668662282854  0.3426942098048543 		Uiso   ? 		O 		-0.58278
O 1.0  		0.8628460410224821 		0.7554715870055944  0.34241273612123635 		Uiso   ? 		O 		-0.58278
O 1.0  		0.11383435024865006 		0.2608204926881932  0.1884466311822176 		Uiso   ? 		O 		-0.58420
O 1.0  		0.11471860884133578 		0.7593973893414467  0.18816515749859966 		Uiso   ? 		O 		-0.58420
O 1.0  		0.6140274182895151 		0.2591029541662578  0.18788368381498172 		Uiso   ? 		O 		-0.58420
O 1.0  		0.6151000953319461 		0.7589066640494652  0.18717999960593684 		Uiso   ? 		O 		-0.58420
O 1.0  		0.11317928448596565 		0.2573854156443223  0.3418497887540004 		Uiso   ? 		O 		-0.58278
O 1.0  		0.11294415114898726 		0.7566984002355482  0.34213126243761843 		Uiso   ? 		O 		-0.58278
O 1.0  		0.6137667846720171 		0.2615565806261655  0.3418497887540004 		Uiso   ? 		O 		-0.58278
O 1.0  		0.6160157947121286 		0.7598881146334283  0.34086463086133767 		Uiso   ? 		O 		-0.58278
O 1.0  		0.2698105610593721 		0.3513593090587889  0.18703926276412786 		Uiso   ? 		O 		-0.58420
O 1.0  		0.2693235917277435 		0.854843458631858  0.18647631539689197 		Uiso   ? 		O 		-0.58420
O 1.0  		0.769285145792648 		0.3516046717047797  0.1884466311822176 		Uiso   ? 		O 		-0.58420
O 1.0  		0.7689120585970523 		0.8536166454019041  0.18746147328955481 		Uiso   ? 		O 		-0.58420
O 1.0  		0.268691169129708 		0.35209539699676123  0.3417090519121915 		Uiso   ? 		O 		-0.58272
O 1.0  		0.26930599648204767 		0.8514083815879872  0.3411461045449556 		Uiso   ? 		O 		-0.58272
O 1.0  		0.7678875249997898 		0.3513593090587889  0.34255347296304534 		Uiso   ? 		O 		-0.58272
O 1.0  		0.7702768100444781 		0.8533712827559133  0.34142757822857356 		Uiso   ? 		O 		-0.58272
O 1.0  		0.3712071184628998 		0.2107665129060752  0.23812673634078582 		Uiso   ? 		O 		-0.55471
O 1.0  		0.37280338388628637 		0.7120423986652273  0.23798599949897686 		Uiso   ? 		O 		-0.55471
O 1.0  		0.8696609193028081 		0.21322013936598294  0.2388304205498307 		Uiso   ? 		O 		-0.55471
O 1.0  		0.8699405767239374 		0.7122877613112181  0.23953410475887557 		Uiso   ? 		O 		-0.55471
O 1.0  		0.11287698390018748 		0.2576307782903131  0.2602224205047949 		Uiso   ? 		O 		-0.58406
O 1.0  		0.11444037997814183 		0.7584159387574837  0.25825210471946924 		Uiso   ? 		O 		-0.58406
O 1.0  		0.6129233004595874 		0.25689469035234075  0.2593779994539411 		Uiso   ? 		O 		-0.58406
O 1.0  		0.6154111935405722 		0.7603788399254099  0.25768915735223336 		Uiso   ? 		O 		-0.58406
O 1.0  		0.3311502131818237 		0.24879772303464523  0.12863347341340323 		Uiso   ? 		O 		-0.61067
O 1.0  		0.32920636084336113 		0.7463931691039356  0.12891494709702117 		Uiso   ? 		O 		-0.61067
O 1.0  		0.8316215100858828 		0.24806163509667287  0.1293371576224481 		Uiso   ? 		O 		-0.61067
O 1.0  		0.8318858934072757 		0.7500736087937973  0.12947789446425706 		Uiso   ? 		O 		-0.61067
O 1.0  		0.2686254304388436 		0.35111394641279814  0.2586743152448962 		Uiso   ? 		O 		-0.58406
O 1.0  		0.26723803582676886 		0.8506722936500148  0.25839284156127823 		Uiso   ? 		O 		-0.58406
O 1.0  		0.7685009237941942 		0.3525861222887428  0.26036315734660387 		Uiso   ? 		O 		-0.58406
O 1.0  		0.7694268493551599 		0.8533712827559133  0.259659473137559 		Uiso   ? 		O 		-0.58406
O 1.0  		0.2938944253433735 		0.14623613701050153  0.1608622101876585 		Uiso   ? 		O 		-1.13805
O 1.0  		0.29323431166173597 		0.6455491216017274  0.16058073650404056 		Uiso   ? 		O 		-1.13805
O 1.0  		0.79399768297079 		0.1447639611345569  0.1624103154475572 		Uiso   ? 		O 		-1.13805
O 1.0  		0.7933792362574326 		0.6462852095396997  0.16184736808032132 		Uiso   ? 		O 		-1.13805
O 1.0  		0.2916051768929173 		0.14378251055059377  0.3144061046012503 		Uiso   ? 		O 		-1.13812
O 1.0  		0.29265378221276395 		0.6448130336637551  0.315954209861149 		Uiso   ? 		O 		-1.13812
O 1.0  		0.7921750818332729 		0.1445185984885661  0.315954209861149 		Uiso   ? 		O 		-1.13812
O 1.0  		0.7920954976006075 		0.6445676710177642  0.31567273617753105 		Uiso   ? 		O 		-1.13812
O 1.0  		0.38325417985780896 		0.1447639611345569  0.16114368387127645 		Uiso   ? 		O 		-1.13805
O 1.0  		0.381998262627463 		0.6462852095396997  0.1619881049221303 		Uiso   ? 		O 		-1.13805
O 1.0  		0.8820912940740963 		0.14500932378054765  0.1612844207130854 		Uiso   ? 		O 		-1.13805
O 1.0  		0.8820862461551431 		0.6477573854156444  0.16212884176393927 		Uiso   ? 		O 		-1.13805
O 1.0  		0.38098900312993705 		0.14108352144469527  0.31468757828486826 		Uiso   ? 		O 		-1.13812
O 1.0  		0.3838778048329966 		0.6457944842477182  0.315954209861149 		Uiso   ? 		O 		-1.13812
O 1.0  		0.8833991044535056 		0.1455000490725292  0.31482831512667725 		Uiso   ? 		O 		-1.13812
O 1.0  		0.8827630624944524 		0.6435862204338013  0.31496905196848624 		Uiso   ? 		O 		-1.13812
O 1.0  		0.32985767690215073 		0.2453626459907744  0.28288105203603986 		Uiso   ? 		O 		-0.61069
O 1.0  		0.33024473998242454 		0.7476199823338896  0.28316252571965783 		Uiso   ? 		O 		-0.61069
O 1.0  		0.8320224187079576 		0.24928844832662678  0.2838662099287027 		Uiso   ? 		O 		-0.61069
O 1.0  		0.832334945474519 		0.7488467955638435  0.28316252571965783 		Uiso   ? 		O 		-0.61069
O 1.0  		0.38264920538425184 		0.23407596427519875  0.1608622101876585 		Uiso   ? 		O 		-1.13806
O 1.0  		0.38111505929071204 		0.7346157620963786  0.16142515755489442 		Uiso   ? 		O 		-1.13806
O 1.0  		0.8842574894636709 		0.23603886544312494  0.1612844207130854 		Uiso   ? 		O 		-1.13806
O 1.0  		0.8819872648168458 		0.73510648738836  0.16156589439670338 		Uiso   ? 		O 		-1.13806
O 1.0  		0.3818561857629503 		0.23333987633722644  0.31468757828486826 		Uiso   ? 		O 		-1.13812
O 1.0  		0.3819650199800302 		0.7346157620963786  0.315954209861149 		Uiso   ? 		O 		-1.13812
O 1.0  		0.8827283912890841 		0.233830601629208  0.31567273617753105 		Uiso   ? 		O 		-1.13812
O 1.0  		0.8837529248863465 		0.7360879379723232  0.3141246309176324 		Uiso   ? 		O 		-1.13812
O 1.0  		0.2926764253774128 		0.1455000490725292  0.13088526288234684 		Uiso   ? 		O 		-1.13804
O 1.0  		0.2913459718333546 		0.6443223083717735  0.1315889470913917 		Uiso   ? 		O 		-1.13804
O 1.0  		0.7915376113162843 		0.1445185984885661  0.13299631550948143 		Uiso   ? 		O 		-1.13804
O 1.0  		0.7905182559808521 		0.6448130336637551  0.13243336814224554 		Uiso   ? 		O 		-1.13804
O 1.0  		0.2924551375822354 		0.14378251055059377  0.28513284150498347 		Uiso   ? 		O 		-1.13799
O 1.0  		0.29267785393534823 		0.6435862204338013  0.28625873623945525 		Uiso   ? 		O 		-1.13799
O 1.0  		0.7924773824190511 		0.14427323584257534  0.2865402099230733 		Uiso   ? 		O 		-1.13799
O 1.0  		0.7914580270836189 		0.6445676710177642  0.28597726255583733 		Uiso   ? 		O 		-1.13799
O 1.0  		0.3822005266190092 		0.1464814996564923  0.13215189445862757 		Uiso   ? 		O 		-1.13804
O 1.0  		0.38129505341961 		0.6453037589557366  0.1325741049840545 		Uiso   ? 		O 		-1.13804
O 1.0  		0.882803300904797 		0.14770831288644617  0.13201115761681861 		Uiso   ? 		O 		-1.13804
O 1.0  		0.8830741607030783 		0.6450583963097458  0.13229263130043656 		Uiso   ? 		O 		-1.13804
O 1.0  		0.3157350907941059 		0.15506919226616941  0.2071646311428113 		Uiso   ? 		O 		-0.55463
O 1.0  		0.31716053301344305 		0.6585533418392385  0.20786831535185618 		Uiso   ? 		O 		-0.55463
O 1.0  		0.814302773770047 		0.1560506428501325  0.208853473244519 		Uiso   ? 		O 		-0.55463
O 1.0  		0.8138310785381548 		0.6565904406713123  0.20913494692813694 		Uiso   ? 		O 		-0.55463
O 1.0  		0.38096493140735277 		0.14231033467464912  0.28471063097955657 		Uiso   ? 		O 		-1.13799
O 1.0  		0.38469489617688246 		0.6453037589557366  0.2866809467648822 		Uiso   ? 		O 		-1.13799
O 1.0  		0.8833092940400569 		0.14574541171851998  0.28513284150498347 		Uiso   ? 		O 		-1.13799
O 1.0  		0.8815538601513396 		0.6445676710177642  0.2858365257140284 		Uiso   ? 		O 		-1.13799
O 1.0  		0.3824783821802024 		0.23628422808911573  0.13144821024958273 		Uiso   ? 		O 		-1.13805
O 1.0  		0.38167151701709984 		0.7365786632643047  0.13229263130043656 		Uiso   ? 		O 		-1.13805
O 1.0  		0.8828029276027963 		0.2365295907351065  0.13172968393320067 		Uiso   ? 		O 		-1.13805
O 1.0  		0.8827474150927151 		0.7353518500343508  0.13299631550948143 		Uiso   ? 		O 		-1.13805
O 1.0  		0.38139833607285906 		0.23284915104524487  0.28485136782136555 		Uiso   ? 		O 		-1.13799
O 1.0  		0.382243248843224 		0.7355972126803416  0.28625873623945525 		Uiso   ? 		O 		-1.13799
O 1.0  		0.8824918293941703 		0.23505741485916185  0.28597726255583733 		Uiso   ? 		O 		-1.13799
O 1.0  		0.8831395260919422 		0.7348611247423693  0.28569578887221936 		Uiso   ? 		O 		-1.13799
O 1.0  		0.15562966246769272 		0.28363921876533515  0.13299631550948143 		Uiso   ? 		O 		-1.13804
O 1.0  		0.15464965295458127 		0.7797624889586809  0.13172968393320067 		Uiso   ? 		O 		-1.13804
O 1.0  		0.6555532992682118 		0.28265776818137206  0.13327778919309938 		Uiso   ? 		O 		-1.13804
O 1.0  		0.6559797081708063 		0.7807439395426441  0.13116673656596478 		Uiso   ? 		O 		-1.13804
O 1.0  		0.15546531574053177 		0.28118559230542745  0.28625873623945525 		Uiso   ? 		O 		-1.13799
O 1.0  		0.15495195354035946 		0.7795171263126902  0.28541431518860144 		Uiso   ? 		O 		-1.13799
O 1.0  		0.6556912531268292 		0.27995877907547356  0.2861179993976463 		Uiso   ? 		O 		-1.13799
O 1.0  		0.655677407585028 		0.7809893021886348  0.28569578887221936 		Uiso   ? 		O 		-1.13799
O 1.0  		0.31546565955375994 		0.15580528020414175  0.36296031502534676 		Uiso   ? 		O 		-0.55540
O 1.0  		0.3147814741495381 		0.6563450780253214  0.3623973676581108 		Uiso   ? 		O 		-0.55540
O 1.0  		0.8159128847352347 		0.1562960054961233  0.36211589397449284 		Uiso   ? 		O 		-0.55540
O 1.0  		0.8133403595026314 		0.6556089900873492  0.3625381044999198 		Uiso   ? 		O 		-0.55540
O 1.0  		0.37111401298151236 		0.1570320934340956  0.20744610482642925 		Uiso   ? 		O 		-0.55463
O 1.0  		0.3714922784389383 		0.6575718912552754  0.208853473244519 		Uiso   ? 		O 		-0.55463
O 1.0  		0.8711274601954803 		0.15580528020414175  0.2071646311428113 		Uiso   ? 		O 		-0.55463
O 1.0  		0.8709668631722141 		0.6578172539012661  0.2082905258772831 		Uiso   ? 		O 		-0.55463
O 1.0  		0.3688400386307925 		0.15163411522229855  0.36155294660725695 		Uiso   ? 		O 		-0.55538
O 1.0  		0.3732250691630067 		0.6580626165472568  0.36352326239258265 		Uiso   ? 		O 		-0.55538
O 1.0  		0.8715612381629871 		0.15752281872607715  0.3619751571326839 		Uiso   ? 		O 		-0.55538
O 1.0  		0.8710390783399669 		0.6541368142114045  0.3619751571326839 		Uiso   ? 		O 		-0.55538
O 1.0  		0.3703659553964296 		0.2124840514280106  0.2077275785100472 		Uiso   ? 		O 		-0.55463
O 1.0  		0.37162705088860576 		0.7135145745411718  0.20814978903547415 		Uiso   ? 		O 		-0.55463
O 1.0  		0.8698974811977219 		0.21199332613602906  0.20857199956090106 		Uiso   ? 		O 		-0.55463
O 1.0  		0.871044694553865 		0.714496025125135  0.208853473244519 		Uiso   ? 		O 		-0.55463
O 1.0  		0.1545339689586122 		0.371969771322014  0.1325741049840545 		Uiso   ? 		O 		-1.13804
O 1.0  		0.15603162634570217 		0.8717734812052214  0.13187042077500966 		Uiso   ? 		O 		-1.13804
O 1.0  		0.6564028866555293 		0.3714790460300324  0.1325741049840545 		Uiso   ? 		O 		-1.13804
O 1.0  		0.6553418643518171 		0.8695652173913044  0.1327148418258635 		Uiso   ? 		O 		-1.13804
O 1.0  		0.368714177462962 		0.21003042496810287  0.36225663081630183 		Uiso   ? 		O 		-0.55535
O 1.0  		0.3710377238167858 		0.7110609480812642  0.36225663081630183 		Uiso   ? 		O 		-0.55535
O 1.0  		0.8703224615423809 		0.21199332613602906  0.3625381044999198 		Uiso   ? 		O 		-0.55535
O 1.0  		0.8708715502038562 		0.7103248601432919  0.3632417887089647 		Uiso   ? 		O 		-0.55535
O 1.0  		0.1698253240064808 		0.30523113161252335  0.20800905219366517 		Uiso   ? 		O 		-0.55463
O 1.0  		0.16822543922207647 		0.80478947884974  0.20814978903547415 		Uiso   ? 		O 		-0.55463
O 1.0  		0.6671421376710291 		0.30498576896653257  0.20927568376994596 		Uiso   ? 		O 		-0.55463
O 1.0  		0.6671764355743968 		0.8035626656197861  0.20786831535185618 		Uiso   ? 		O 		-0.55463
O 1.0  		0.16881981421284964 		0.30449504367455105  0.36113073608183 		Uiso   ? 		O 		-0.55537
O 1.0  		0.16438302087444917 		0.8013544018058691  0.3625381044999198 		Uiso   ? 		O 		-0.55537
O 1.0  		0.6676569284291368 		0.3047404063205418  0.36169368344906594 		Uiso   ? 		O 		-0.55537
O 1.0  		0.6693342066431243 		0.8040533909117676  0.3619751571326839 		Uiso   ? 		O 		-0.55537
O 1.0  		0.16984621432011535 		0.36264599077436455  0.20857199956090106 		Uiso   ? 		O 		-0.55463
O 1.0  		0.16946432950167167 		0.8629404259495534  0.20758684166823824 		Uiso   ? 		O 		-0.55463
O 1.0  		0.6695332892257206 		0.36289135342035533  0.208853473244519 		Uiso   ? 		O 		-0.55463
O 1.0  		0.6688162344760666 		0.8629404259495534  0.2084312627190921 		Uiso   ? 		O 		-0.55463
O 1.0  		0.16493254748799246 		0.3574933752085583  0.36267884134172873 		Uiso   ? 		O 		-0.55534
O 1.0  		0.1671750810512156 		0.8604867994896458  0.3628195781835377 		Uiso   ? 		O 		-0.55534
O 1.0  		0.6655593934963645 		0.3574933752085583  0.3623973676581108 		Uiso   ? 		O 		-0.55534
O 1.0  		0.6679158091956207 		0.8590146236137011  0.36211589397449284 		Uiso   ? 		O 		-0.55534
O 1.0  		0.1551955111981851 		0.3707429580920601  0.2858365257140284 		Uiso   ? 		O 		-1.13799
O 1.0  		0.15374237789524597 		0.8693198547453137  0.2852735783467925 		Uiso   ? 		O 		-1.13799
O 1.0  		0.6560019780334545 		0.3702522328000785  0.28597726255583733 		Uiso   ? 		O 		-1.13799
O 1.0  		0.6563473741454482 		0.8703013053292767  0.2868216836066912 		Uiso   ? 		O 		-1.13799
O 1.0  		0.22434878294966004 		0.3594562763764845  0.20871273640271004 		Uiso   ? 		O 		-0.55463
O 1.0  		0.22425392461725832 		0.862449700657572  0.2082905258772831 		Uiso   ? 		O 		-0.55463
O 1.0  		0.7240775248235455 		0.36190990283639224  0.20871273640271004 		Uiso   ? 		O 		-0.55463
O 1.0  		0.7226243915206063 		0.8604867994896458  0.20786831535185618 		Uiso   ? 		O 		-0.55463
O 1.0  		0.22452192729966888 		0.36362744135832764  0.36225663081630183 		Uiso   ? 		O 		-0.55549
O 1.0  		0.2204027086467831 		0.8572970850917657  0.36211589397449284 		Uiso   ? 		O 		-0.55549
O 1.0  		0.722138720404036 		0.3567572872705859  0.3628195781835377 		Uiso   ? 		O 		-0.55549
O 1.0  		0.724692352175885 		0.861222887427618  0.36211589397449284 		Uiso   ? 		O 		-0.55549
O 1.0  		0.16648242231722482 		0.30449504367455105  0.23911189423344867 		Uiso   ? 		O 		-0.55471
O 1.0  		0.1680370207723313 		0.8035626656197861  0.23911189423344867 		Uiso   ? 		O 		-0.55471
O 1.0  		0.6684170787050063 		0.30498576896653257  0.23925263107525763 		Uiso   ? 		O 		-0.55471
O 1.0  		0.6698249256786477 		0.8050348414957308  0.23840821002440377 		Uiso   ? 		O 		-0.55471
O 1.0  		0.3321140560071748 		0.2473255471587006  0.16409915754926493 		Uiso   ? 		O 		-0.61064
O 1.0  		0.3297299492243168 		0.7478653449798803  0.16409915754926493 		Uiso   ? 		O 		-0.61064
O 1.0  		0.8326598892249462 		0.24928844832662678  0.16438063123288288 		Uiso   ? 		O 		-0.61064
O 1.0  		0.8332835142001337 		0.750318971439788  0.16438063123288288 		Uiso   ? 		O 		-0.61064
O 1.0  		0.16826017507751206 		0.3611738148984199  0.2393933679170666 		Uiso   ? 		O 		-0.55471
O 1.0  		0.16654408701111545 		0.8558249092158211  0.23784526265716788 		Uiso   ? 		O 		-0.55471
O 1.0  		0.6676690211199235 		0.36043772696044757  0.23967484160068456 		Uiso   ? 		O 		-0.55471
O 1.0  		0.6691273326846928 		0.8644126018254982  0.23897115739163965 		Uiso   ? 		O 		-0.55471
O 1.0  		0.2221252731900682 		0.35798410050053986  0.2393933679170666 		Uiso   ? 		O 		-0.55471
O 1.0  		0.22394930288552067 		0.8563156345078027  0.23854894686621275 		Uiso   ? 		O 		-0.55471
O 1.0  		0.7232099688885315 		0.3584748257925214  0.24009705212611146 		Uiso   ? 		O 		-0.55471
O 1.0  		0.7229836331744011 		0.8595053489056826  0.23854894686621275 		Uiso   ? 		O 		-0.55471
O 1.0  		0.33074050693690105 		0.24585337128275594  0.316376420386576 		Uiso   ? 		O 		-0.61071
O 1.0  		0.3294188510156907 		0.7463931691039356  0.31862820985551954 		Uiso   ? 		O 		-0.61071
O 1.0  		0.8308854315325976 		0.24658945922072822  0.3189096835391375 		Uiso   ? 		O 		-0.61071
O 1.0  		0.8322122657156381 		0.7486014329178526  0.3175023151210477 		Uiso   ? 		O 		-0.61071
O 1.0  		0.33383145897251787 		0.13813916969280596  0.17789136804654448 		Uiso   ? 		O 		-0.98192
O 1.0  		0.3339402931895977 		0.639415055451958  0.17859505225558936 		Uiso   ? 		O 		-0.98192
O 1.0  		0.8348263442575325 		0.1388752576307783  0.17859505225558936 		Uiso   ? 		O 		-0.98192
O 1.0  		0.8356712570278975 		0.641623319265875  0.1784543154137804 		Uiso   ? 		O 		-0.98192
O 1.0  		0.33345462207302734 		0.13568554323289825  0.33213894666918115 		Uiso   ? 		O 		-0.98194
O 1.0  		0.33545179611848863 		0.6381882422220042  0.33354631508727095 		Uiso   ? 		O 		-0.98194
O 1.0  		0.8343684945674412 		0.13838453233879675  0.3324204203527991 		Uiso   ? 		O 		-0.98194
O 1.0  		0.8325801913332918 		0.6367160663460596  0.333264841403653 		Uiso   ? 		O 		-0.98194
O 1.0  		0.38851046702001013 		0.19310040239473944  0.1784543154137804 		Uiso   ? 		O 		-0.98193
O 1.0  		0.3891998306860621 		0.6951123760918638  0.1794394733064432 		Uiso   ? 		O 		-0.98193
O 1.0  		0.8874045223043138 		0.1926096771027579  0.17831357857197142 		Uiso   ? 		O 		-0.98193
O 1.0  		0.889524376108656 		0.6953577387378547  0.17859505225558936 		Uiso   ? 		O 		-0.98193
O 1.0  		0.38962106132682633 		0.1906467759348317  0.3322796835109902 		Uiso   ? 		O 		-0.98194
O 1.0  		0.38884706550915593 		0.6914319364020022  0.333264841403653 		Uiso   ? 		O 		-0.98194
O 1.0  		0.8894155418915761 		0.19408185297870253  0.3325611571946081 		Uiso   ? 		O 		-0.98194
O 1.0  		0.8887466305870908 		0.691677299047993  0.3324204203527991 		Uiso   ? 		O 		-0.98194
O 1.0  		0.33393336207675317 		0.193591127686721  0.17803210488835344 		Uiso   ? 		O 		-0.98193
O 1.0  		0.33388664718952 		0.6941309255079008  0.1777506312047355 		Uiso   ? 		O 		-0.98193
O 1.0  		0.8343477179127957 		0.193591127686721  0.17929873646463423 		Uiso   ? 		O 		-0.98193
O 1.0  		0.8345134931978921 		0.6941309255079008  0.17859505225558936 		Uiso   ? 		O 		-0.98193
O 1.0  		0.3344722245574452 		0.19211895181077634  0.33185747298556323 		Uiso   ? 		O 		-0.98194
O 1.0  		0.33490743108288745 		0.6919226616939838  0.333264841403653 		Uiso   ? 		O 		-0.98194
O 1.0  		0.8343477179127957 		0.193591127686721  0.333264841403653 		Uiso   ? 		O 		-0.98194
O 1.0  		0.8348398655062546 		0.6926587496319561  0.3325611571946081 		Uiso   ? 		O 		-0.98194
O 1.0  		0.24459693268090066 		0.3714790460300324  0.13243336814224554 		Uiso   ? 		O 		-1.13804
O 1.0  		0.2450738061746231 		0.8734910197271568  0.13088526288234684 		Uiso   ? 		O 		-1.13804
O 1.0  		0.7452237786892728 		0.3714790460300324  0.13243336814224554 		Uiso   ? 		O 		-1.13804
O 1.0  		0.7441715540084084 		0.8712827559132399  0.1315889470913917 		Uiso   ? 		O 		-1.13804
O 1.0  		0.3341096878357117 		0.13912062027676905  0.11329315765622494 		Uiso   ? 		O 		-0.98199
O 1.0  		0.33378474408528463 		0.6386789675139858  0.11357463133984289 		Uiso   ? 		O 		-0.98199
O 1.0  		0.8334615928101067 		0.13912062027676905  0.11399684186526982 		Uiso   ? 		O 		-0.98199
O 1.0  		0.8332505311957126 		0.6372067916380411  0.1145597892325057 		Uiso   ? 		O 		-0.98199
O 1.0  		0.3331851908326814 		0.13642163117087058  0.2681036836460975 		Uiso   ? 		O 		-0.98193
O 1.0  		0.3357212273588347 		0.6374521542840318  0.2699332625896142 		Uiso   ? 		O 		-0.98193
O 1.0  		0.8346707951532195 		0.13813916969280596  0.2681036836460975 		Uiso   ? 		O 		-0.98193
O 1.0  		0.8334060803000255 		0.6379428795760134  0.26866663101333343 		Uiso   ? 		O 		-0.98193
O 1.0  		0.39003956519459687 		0.19530866620865642  0.11427831554888776 		Uiso   ? 		O 		-0.98200
O 1.0  		0.3878920203066527 		0.6946216507998823  0.11427831554888776 		Uiso   ? 		O 		-0.98200
O 1.0  		0.8879609800307017 		0.1945725782706841  0.11498199975793262 		Uiso   ? 		O 		-0.98200
O 1.0  		0.8896053888992568 		0.6933948375699285  0.11399684186526982 		Uiso   ? 		O 		-0.98200
O 1.0  		0.3885674080880266 		0.19236431445676713  0.2676814731206706 		Uiso   ? 		O 		-0.98194
O 1.0  		0.38922390240864635 		0.6938855628619099  0.2696517889059962 		Uiso   ? 		O 		-0.98194
O 1.0  		0.8903553129943429 		0.19383649033271177  0.2682444204879065 		Uiso   ? 		O 		-0.98194
O 1.0  		0.8896623299672732 		0.6926587496319561  0.26838515732971546 		Uiso   ? 		O 		-0.98194
O 1.0  		0.2796190982379647 		0.08538620080478948  -0.026458526260087312 		Uiso   ? 		O 		-0.56721
O 1.0  		0.2773905405594197 		0.5866620865639416  -0.025895578892851413 		Uiso   ? 		O 		-0.56721
O 1.0  		0.7845374146612075 		0.08759446461870646  -0.024628947316570636 		Uiso   ? 		O 		-0.56721
O 1.0  		0.7822407971458387 		0.5815094709981353  -0.022799368373053963 		Uiso   ? 		O 		-0.56721
O 1.0  		0.33515136204271384 		0.19432721562469332  -0.03856189465565917 		Uiso   ? 		O 		-0.91724
O 1.0  		0.3358559998085022 		0.6933948375699285  -0.037295263079378395 		Uiso   ? 		O 		-0.91724
O 1.0  		0.8357212669830696 		0.19506330356266566  -0.03828042097204122 		Uiso   ? 		O 		-0.91724
O 1.0  		0.8337028783308946 		0.6899597605260576  -0.03799894728842327 		Uiso   ? 		O 		-0.91724
O 1.0  		0.09200064823579587 		0.2711257238198057  0.01111821050290903 		Uiso   ? 		O 		-0.60244
O 1.0  		0.09094842355493155 		0.7709294337030131  0.010977473661100056 		Uiso   ? 		O 		-0.60244
O 1.0  		0.5919066897906192 		0.26670919619197175  0.0074590526158756785 		Uiso   ? 		O 		-0.60244
O 1.0  		0.590929001423467 		0.7692118951810777  0.008444210508538504 		Uiso   ? 		O 		-0.60244
O 1.0  		0.15360202155671396 		0.3263323191677299  -0.037576736762996346 		Uiso   ? 		O 		-0.91724
O 1.0  		0.15137346387816897 		0.827608204926882  -0.03884336833927712 		Uiso   ? 		O 		-0.91724
O 1.0  		0.6570481808733865 		0.3255962312297576  -0.039406315706513026 		Uiso   ? 		O 		-0.91724
O 1.0  		0.6541492833324206 		0.8263813916969281  -0.03884336833927712 		Uiso   ? 		O 		-0.91724
O 1.0  		0.20136514080766893 		0.37638629894984793  -0.0384211578138502 		Uiso   ? 		O 		-0.91715
O 1.0  		0.2035090663345954 		0.8779075473549907  -0.03870263149746815 		Uiso   ? 		O 		-0.91715
O 1.0  		0.7054816399867622 		0.3761409363038571  -0.03799894728842327 		Uiso   ? 		O 		-0.91715
O 1.0  		0.7037438013437407 		0.8783982726469723  -0.03982852623193994 		Uiso   ? 		O 		-0.91715
O 1.0  		0.2024330942242257 		0.32412405535381295  -0.03856189465565917 		Uiso   ? 		O 		-0.91724
O 1.0  		0.20245211802785695 		0.8256453037589558  -0.038984105181086096 		Uiso   ? 		O 		-0.91724
O 1.0  		0.7075967701652301 		0.3268230444597115  -0.03828042097204122 		Uiso   ? 		O 		-0.91724
O 1.0  		0.7053024737958209 		0.8271174796349005  -0.038984105181086096 		Uiso   ? 		O 		-0.91724
O 1.0  		0.14909806096951375 		0.32412405535381295  0.02519189468380654 		Uiso   ? 		O 		-0.98153
O 1.0  		0.14706439821760253 		0.8219648640690942  0.02420673679114371 		Uiso   ? 		O 		-0.98153
O 1.0  		0.6519155473920455 		0.32510550593777604  0.024910421000188587 		Uiso   ? 		O 		-0.98153
O 1.0  		0.6476014338125259 		0.8222102267150849  0.024347473632952685 		Uiso   ? 		O 		-0.98153
O 1.0  		0.15647962315701083 		0.28363921876533515  0.008162736824920554 		Uiso   ? 		O 		-1.13516
O 1.0  		0.15596626095683847 		0.781970752772598  0.007318315774066704 		Uiso   ? 		O 		-1.13516
O 1.0  		0.6565171420935629 		0.28118559230542745  0.006755368406830804 		Uiso   ? 		O 		-1.13516
O 1.0  		0.6554408456901143 		0.7822161154185888  0.006192421039594903 		Uiso   ? 		O 		-1.13516
O 1.0  		0.20334329104949908 		0.377367749533811  0.02448821047476166 		Uiso   ? 		O 		-0.98153
O 1.0  		0.2031410270579528 		0.8771714594170185  0.02420673679114371 		Uiso   ? 		O 		-0.98153
O 1.0  		0.7069297253707482 		0.3803121012857003  0.02603631573466039 		Uiso   ? 		O 		-0.98153
O 1.0  		0.7039474938932223 		0.8766807341250369  0.024628947316570636 		Uiso   ? 		O 		-0.98153
O 1.0  		0.2051713947419253 		0.32535086858376683  0.02519189468380654 		Uiso   ? 		O 		-0.98153
O 1.0  		0.2034729019212245 		0.8234370399450388  0.024628947316570636 		Uiso   ? 		O 		-0.98153
O 1.0  		0.7061903517495243 		0.3248601432917853  0.02448821047476166 		Uiso   ? 		O 		-0.98153
O 1.0  		0.703297930685447 		0.8209834134851312  0.02519189468380654 		Uiso   ? 		O 		-0.98153
O 1.0  		0.2540507245135947 		0.43331043281970755  -0.026177052576469365 		Uiso   ? 		O 		-0.56686
O 1.0  		0.2602889043827987 		0.9340955932868781  -0.025051157841997563 		Uiso   ? 		O 		-0.56686
O 1.0  		0.7581672236926879 		0.43306507017371676  -0.023925263107525765 		Uiso   ? 		O 		-0.56686
O 1.0  		0.757875149287693 		0.9331141427029149  -0.02533263152561551 		Uiso   ? 		O 		-0.56686
O 1.0  		0.09283630874735692 		0.3216704288939052  -0.02519189468380654 		Uiso   ? 		O 		-0.56684
O 1.0  		0.09552789437782339 		0.8234370399450388  -0.027302947310941166 		Uiso   ? 		O 		-0.56684
O 1.0  		0.5974763963074058 		0.3228972421238591  -0.026599263101896288 		Uiso   ? 		O 		-0.56684
O 1.0  		0.5951820999379964 		0.8231916772990481  -0.026458526260087312 		Uiso   ? 		O 		-0.56684
O 1.0  		0.20610787077675335 		0.2711257238198057  -0.02603631573466039 		Uiso   ? 		O 		-0.56684
O 1.0  		0.20276639764543278 		0.7684758072431054  -0.02744368415275014 		Uiso   ? 		O 		-0.56684
O 1.0  		0.7096197687842902 		0.2713710864657965  -0.02476968415837961 		Uiso   ? 		O 		-0.56684
O 1.0  		0.7062389498306489 		0.7728923348709393  -0.027021473627323215 		Uiso   ? 		O 		-0.56684
O 1.0  		0.09128313885018585 		0.3206889783099421  0.01027378945205518 		Uiso   ? 		O 		-0.59988
O 1.0  		0.09056608410053191 		0.8207380508391403  0.009570105243010305 		Uiso   ? 		O 		-0.59988
O 1.0  		0.5916558277179484 		0.31848071449602516  0.00942936840120133 		Uiso   ? 		O 		-0.59988
O 1.0  		0.592165570557103 		0.8209834134851312  0.008866421033965429 		Uiso   ? 		O 		-0.59988
O 1.0  		0.20908273318936677 		0.2711257238198057  0.01055526313567313 		Uiso   ? 		O 		-0.59988
O 1.0  		0.206402802297619 		0.7672489940131515  0.008866421033965429 		Uiso   ? 		O 		-0.59988
O 1.0  		0.7068398012983105 		0.26793600942192564  0.010414526293864156 		Uiso   ? 		O 		-0.59988
O 1.0  		0.7057306355494297 		0.7684758072431054  0.0074590526158756785 		Uiso   ? 		O 		-0.59988
O 1.0  		0.32916865421306585 		0.08121503582294633  0.010133052610246204 		Uiso   ? 		O 		-0.59987
O 1.0  		0.3267757498073599 		0.5800372951221906  0.011962631553762882 		Uiso   ? 		O 		-0.59987
O 1.0  		0.8321328921170628 		0.08121503582294633  0.008866421033965429 		Uiso   ? 		O 		-0.59987
O 1.0  		0.8338759090219146 		0.5815094709981353  0.00942936840120133 		Uiso   ? 		O 		-0.59987
O 1.0  		0.25976377378491866 		0.321915791539896  0.009570105243010305 		Uiso   ? 		O 		-0.60243
O 1.0  		0.2567903399302407 		0.820001962901168  0.008866421033965429 		Uiso   ? 		O 		-0.60243
O 1.0  		0.7573740904123973 		0.319707527725979  0.010414526293864156 		Uiso   ? 		O 		-0.60243
O 1.0  		0.7578092969378396 		0.8195112376091864  0.009851578926628256 		Uiso   ? 		O 		-0.60243
O 1.0  		0.28098396334437953 		0.19776229266856415  0.01083673681929108 		Uiso   ? 		O 		-0.59988
O 1.0  		0.28099418952516286 		0.6975660025517716  0.010414526293864156 		Uiso   ? 		O 		-0.59988
O 1.0  		0.7800905088010127 		0.1972715673765826  0.01111821050290903 		Uiso   ? 		O 		-0.59988
O 1.0  		0.7778026889084919 		0.6929041122779468  0.009007157875774404 		Uiso   ? 		O 		-0.59988
O 1.0  		0.44306679530862153 		0.24781627245068213  -0.02603631573466039 		Uiso   ? 		O 		-0.56685
O 1.0  		0.4405905569663554 		0.7422220041220925  -0.02476968415837961 		Uiso   ? 		O 		-0.56685
O 1.0  		0.9429006216956919 		0.24708018451270977  -0.02533263152561551 		Uiso   ? 		O 		-0.56685
O 1.0  		0.9413576779793041 		0.7459024438119541  -0.026599263101896288 		Uiso   ? 		O 		-0.56685
O 1.0  		0.3276988182524549 		0.08465011286681716  -0.025473368367424486 		Uiso   ? 		O 		-0.56684
O 1.0  		0.3284363253636754 		0.5842084601040337  -0.023503052582098838 		Uiso   ? 		O 		-0.56684
O 1.0  		0.8336707879144974 		0.0851408381587987  -0.025614105209233462 		Uiso   ? 		O 		-0.56684
O 1.0  		0.8346536545434797 		0.5851899106879969  -0.02533263152561551 		Uiso   ? 		O 		-0.56684
O 1.0  		0.2804603749634239 		0.1962901167926195  -0.02420673679114371 		Uiso   ? 		O 		-0.56684
O 1.0  		0.28114094100662795 		0.6965845519678084  -0.024347473632952685 		Uiso   ? 		O 		-0.56684
O 1.0  		0.781945979283962 		0.19800765531455494  -0.023362315740289862 		Uiso   ? 		O 		-0.56684
O 1.0  		0.7816187143875756 		0.6911865737560114  -0.026317789418278337 		Uiso   ? 		O 		-0.56684
O 1.0  		0.15465664871749307 		0.3722151339680047  0.008444210508538504 		Uiso   ? 		O 		-1.13516
O 1.0  		0.15542702517414586 		0.8722642064972029  0.006333157881403878 		Uiso   ? 		O 		-1.13516
O 1.0  		0.6570403571725179 		0.3714790460300324  0.00830347366672953 		Uiso   ? 		O 		-1.13516
O 1.0  		0.6558413810101884 		0.8722642064972029  0.007177578932257728 		Uiso   ? 		O 		-1.13516
O 1.0  		0.2612003670980967 		0.40681126705270393  -0.04883568410771435 		Uiso   ? 		O 		-0.56730
O 1.0  		0.2633771619704554 		0.9088232407498283  -0.04897642094952332 		Uiso   ? 		O 		-0.56730
O 1.0  		0.7669029055197932 		0.4080380802826578  -0.04644315779696177 		Uiso   ? 		O 		-0.56730
O 1.0  		0.7627860080128669 		0.908087152811856  -0.049398631474950244 		Uiso   ? 		O 		-0.56730
O 1.0  		0.11875412025566076 		0.35013249582883504  -0.050102315683995126 		Uiso   ? 		O 		-0.56739
O 1.0  		0.12157718326785594 		0.8538620080478948  -0.05080599989304 		Uiso   ? 		O 		-0.56739
O 1.0  		0.625291345266939 		0.3543036608106782  -0.04925789463314127 		Uiso   ? 		O 		-0.56739
O 1.0  		0.6229729771749454 		0.8558249092158211  -0.04953936831675922 		Uiso   ? 		O 		-0.56739
O 1.0  		0.11233127164060629 		0.3525861222887428  0.10541189451492233 		Uiso   ? 		O 		-0.59953
O 1.0  		0.11310164809725898 		0.852635194817941  0.10527115767311335 		Uiso   ? 		O 		-0.59953
O 1.0  		0.6148464574773598 		0.35381293551869664  0.10583410504034925 		Uiso   ? 		O 		-0.59953
O 1.0  		0.6130252848977782 		0.8516537442339779  0.10484894714768643 		Uiso   ? 		O 		-0.59953
O 1.0  		0.17277746192048996 		0.2652370203160271  -0.0479912630568605 		Uiso   ? 		O 		-0.56746
O 1.0  		0.1711535054135014 		0.7660221807831976  -0.049820842000377175 		Uiso   ? 		O 		-0.56746
O 1.0  		0.680368340170568 		0.26769064677593485  -0.04883568410771435 		Uiso   ? 		O 		-0.56746
O 1.0  		0.6744857825941409 		0.7667582687211699  -0.04996157884218615 		Uiso   ? 		O 		-0.56746
O 1.0  		0.17359223211841648 		0.2583668662282854  0.1055526313567313 		Uiso   ? 		O 		-0.59953
O 1.0  		0.17588290912680815 		0.7589066640494652  0.10456747346406847 		Uiso   ? 		O 		-0.59953
O 1.0  		0.6735487382643679 		0.25787614093630384  0.10625631556577618 		Uiso   ? 		O 		-0.59953
O 1.0  		0.6781286637232158 		0.7608695652173914  0.1038637892550236 		Uiso   ? 		O 		-0.59953
O 1.0  		0.11360621267458346 		0.3525861222887428  0.03476199992681684 		Uiso   ? 		O 		-0.60206
O 1.0  		0.11389466771856072 		0.8533712827559133  0.03363610519234504 		Uiso   ? 		O 		-0.60206
O 1.0  		0.6148705291999441 		0.3525861222887428  0.03349536835053606 		Uiso   ? 		O 		-0.60206
O 1.0  		0.6127799253800165 		0.8511630189419963  0.03363610519234504 		Uiso   ? 		O 		-0.60206
O 1.0  		0.17615091180921877 		0.2600844047502209  0.03462126308500787 		Uiso   ? 		O 		-0.60206
O 1.0  		0.17576902699077518 		0.7603788399254099  0.03349536835053606 		Uiso   ? 		O 		-0.60206
O 1.0  		0.676541195922677 		0.2613112179801747  0.03476199992681684 		Uiso   ? 		O 		-0.60206
O 1.0  		0.6721525460294452 		0.7557169496515851  0.031243578881592467 		Uiso   ? 		O 		-0.60206
O 1.0  		0.3609681307097727 		0.10231622337815291  0.03349536835053606 		Uiso   ? 		O 		-0.60206
O 1.0  		0.3614690759260794 		0.6031013838453235  0.03462126308500787 		Uiso   ? 		O 		-0.60206
O 1.0  		0.8598052449260599 		0.10256158602414368  0.03448052624319889 		Uiso   ? 		O 		-0.60206
O 1.0  		0.8633708629684287 		0.6031013838453235  0.03448052624319889 		Uiso   ? 		O 		-0.60206
O 1.0  		0.2691867901001619 		0.16439297281381884  0.03321389466691812 		Uiso   ? 		O 		-0.60206
O 1.0  		0.2699900359022468 		0.6649327706349986  0.03532494729405274 		Uiso   ? 		O 		-0.60206
O 1.0  		0.7713427342831207 		0.16660123662773582  0.03532494729405274 		Uiso   ? 		O 		-0.60206
O 1.0  		0.7684831825644758 		0.6632152321130631  0.034058315717771966 		Uiso   ? 		O 		-0.60206
O 1.0  		0.27744373192354144 		0.0814603984689371  0.008866421033965429 		Uiso   ? 		O 		-0.60243
O 1.0  		0.27726553965457945 		0.5800372951221906  0.00830347366672953 		Uiso   ? 		O 		-0.60243
O 1.0  		0.7799260484148628 		0.08219648640690942  0.009851578926628256 		Uiso   ? 		O 		-0.60243
O 1.0  		0.7827884572493786 		0.5817548336441261  0.011540421028335957 		Uiso   ? 		O 		-0.60243
O 1.0  		0.09495143892582499 		0.2723525370497596  -0.023503052582098838 		Uiso   ? 		O 		-0.56720
O 1.0  		0.09286963272874516 		0.7726469722249485  -0.02378452626571679 		Uiso   ? 		O 		-0.56720
O 1.0  		0.5982179774156001 		0.2721071744037688  -0.027302947310941166 		Uiso   ? 		O 		-0.56720
O 1.0  		0.5961361712185202 		0.7724016095789578  -0.027021473627323215 		Uiso   ? 		O 		-0.56720
O 1.0  		0.41789666808339987 		0.25272352537049764  -0.049680105158568195 		Uiso   ? 		O 		-0.56740
O 1.0  		0.41886193946668626 		0.749337520855825  -0.04953936831675922 		Uiso   ? 		O 		-0.56740
O 1.0  		0.9183438932648745 		0.25321425066247916  -0.04827273674047845 		Uiso   ? 		O 		-0.56740
O 1.0  		0.9150593612015705 		0.7498282461478065  -0.04953936831675922 		Uiso   ? 		O 		-0.56740
O 1.0  		0.3592946021996801 		0.10746883894395919  -0.04883568410771435 		Uiso   ? 		O 		-0.56734
O 1.0  		0.35563555438284494 		0.6080086367651389  -0.049398631474950244 		Uiso   ? 		O 		-0.56734
O 1.0  		0.8635842457287822 		0.11139464127981158  -0.04897642094952332 		Uiso   ? 		O 		-0.56734
O 1.0  		0.8665452625995946 		0.6124251643929729  -0.04785052621505153 		Uiso   ? 		O 		-0.56734
O 1.0  		0.36529247047007557 		0.10501521248405143  0.10470821030587746 		Uiso   ? 		O 		-0.59953
O 1.0  		0.36240884702884624 		0.6028560211993327  0.1055526313567313 		Uiso   ? 		O 		-0.59953
O 1.0  		0.863884225168601 		0.10476984983806066  0.10484894714768643 		Uiso   ? 		O 		-0.59953
O 1.0  		0.8624310918656619 		0.6033467464913143  0.10583410504034925 		Uiso   ? 		O 		-0.59953
O 1.0  		0.27734475058524416 		0.16880950044165277  -0.0485542104240964 		Uiso   ? 		O 		-0.56743
O 1.0  		0.2750985976610034 		0.666650309156934  -0.0479912630568605 		Uiso   ? 		O 		-0.56743
O 1.0  		0.7758138255248888 		0.16831877514967125  -0.04770978937324255 		Uiso   ? 		O 		-0.56743
O 1.0  		0.7756333121099674 		0.6605162430071647  -0.04953936831675922 		Uiso   ? 		O 		-0.56743
O 1.0  		0.26957890109938876 		0.1639022475218373  0.10428599978045053 		Uiso   ? 		O 		-0.59953
O 1.0  		0.26907433652206436 		0.6639513200510355  0.10597484188215824 		Uiso   ? 		O 		-0.59953
O 1.0  		0.7671980153497152 		0.16341152222985575  0.10695999977482105 		Uiso   ? 		O 		-0.59953
O 1.0  		0.7709520518418294 		0.6651781332809893  0.10513042083130437 		Uiso   ? 		O 		-0.59953
O 1.0  		0.24675470374962813 		0.371969771322014  0.007318315774066704 		Uiso   ? 		O 		-1.13516
O 1.0  		0.24499926986091075 		0.8707920306212583  0.006473894723212853 		Uiso   ? 		O 		-1.13516
O 1.0  		0.7462292884829039 		0.3722151339680047  0.00858494735034748 		Uiso   ? 		O 		-1.13516
O 1.0  		0.7465089459040333 		0.8712827559132399  0.007318315774066704 		Uiso   ? 		O 		-1.13516
O 1.0  		0.2942395941373892 		0.42104230052016883  -0.00830347366672953 		Uiso   ? 		O 		-0.58277
O 1.0  		0.2955400354518861 		0.917901658651487  -0.007881263141302604 		Uiso   ? 		O 		-0.58277
O 1.0  		0.7959529627299932 		0.419815487290215  -0.005910947355976953 		Uiso   ? 		O 		-0.58277
O 1.0  		0.7948919404262811 		0.917901658651487  -0.006051684197785927 		Uiso   ? 		O 		-0.58277
O 1.0  		0.10760651021921834 		0.3724604966139955  -0.0068961052486397785 		Uiso   ? 		O 		-0.58279
O 1.0  		0.1097351616464084 		0.8769260967710276  -0.008866421033965429 		Uiso   ? 		O 		-0.58279
O 1.0  		0.6096638463658807 		0.3731965845519678  -0.008162736824920554 		Uiso   ? 		O 		-0.58279
O 1.0  		0.6085218112715677 		0.8732456570811661  -0.008725684192156455 		Uiso   ? 		O 		-0.58279
O 1.0  		0.15528472099165505 		0.23407596427519875  -0.0074590526158756785 		Uiso   ? 		O 		-0.58279
O 1.0  		0.15167381661998847 		0.7321621356364708  -0.009007157875774404 		Uiso   ? 		O 		-0.58279
O 1.0  		0.6560583184814923 		0.23309451369123566  -0.007881263141302604 		Uiso   ? 		O 		-0.58279
O 1.0  		0.6543445515610551 		0.734125036804397  -0.010695999977482105 		Uiso   ? 		O 		-0.58279
O 1.0  		0.4287124032565707 		0.28412994405731673  -0.008444210508538504 		Uiso   ? 		O 		-0.58279
O 1.0  		0.4305035636065909 		0.781970752772598  -0.0068961052486397785 		Uiso   ? 		O 		-0.58279
O 1.0  		0.9306799289897844 		0.2851113946412798  -0.006755368406830804 		Uiso   ? 		O 		-0.58279
O 1.0  		0.928966162069347 		0.7861419177544412  -0.00858494735034748 		Uiso   ? 		O 		-0.58279
O 1.0  		0.38064638279985874 		0.09789969575031898  -0.008725684192156455 		Uiso   ? 		O 		-0.58278
O 1.0  		0.37776275935862946 		0.5957405044656002  -0.007318315774066704 		Uiso   ? 		O 		-0.58278
O 1.0  		0.8848286206698164 		0.0986357836882913  -0.00858494735034748 		Uiso   ? 		O 		-0.58278
O 1.0  		0.8860897161619925 		0.5996663068014526  -0.008162736824920554 		Uiso   ? 		O 		-0.58278
O 1.0  		0.2431333458792002 		0.14500932378054765  -0.007177578932257728 		Uiso   ? 		O 		-0.58279
O 1.0  		0.244059271440166 		0.6457944842477182  -0.0068961052486397785 		Uiso   ? 		O 		-0.58279
O 1.0  		0.7456485317159538 		0.14623613701050153  -0.006614631565021828 		Uiso   ? 		O 		-0.58279
O 1.0  		0.7439083719269728 		0.6421140445578566  -0.006614631565021828 		Uiso   ? 		O 		-0.58279
O 1.0  		0.24183335920065938 		0.0986357836882913  -0.00802199998311158 		Uiso   ? 		O 		-0.58355
O 1.0  		0.24029921310711952 		0.599175581509471  -0.006614631565021828 		Uiso   ? 		O 		-0.58355
O 1.0  		0.7453211854856119 		0.10010795956423595  -0.006755368406830804 		Uiso   ? 		O 		-0.58355
O 1.0  		0.7437037054555118 		0.5962312297575818  -0.005910947355976953 		Uiso   ? 		O 		-0.58355
O 1.0  		0.4275419461157998 		0.1445185984885661  -0.00858494735034748 		Uiso   ? 		O 		-0.58356
O 1.0  		0.4253768059821598 		0.6403965060359211  -0.009288631559392356 		Uiso   ? 		O 		-0.58356
O 1.0  		0.9308413539510071 		0.1447639611345569  -0.008866421033965429 		Uiso   ? 		O 		-0.58356
O 1.0  		0.9316205280305077 		0.6465305721856904  -0.007318315774066704 		Uiso   ? 		O 		-0.58356
O 1.0  		0.20465439649684722 		0.43183825694376293  -0.025614105209233462 		Uiso   ? 		O 		-0.56721
O 1.0  		0.2080163219897344 		0.9340955932868781  -0.025614105209233462 		Uiso   ? 		O 		-0.56721
O 1.0  		0.7063020263985869 		0.4296299931298459  -0.02476968415837961 		Uiso   ? 		O 		-0.56721
O 1.0  		0.7069761159649024 		0.9345863185788597  -0.02420673679114371 		Uiso   ? 		O 		-0.56721
O 1.0  		0.3843764935534112 		0.2868289331632153  -0.007036842090448754 		Uiso   ? 		O 		-0.58355
O 1.0  		0.38457281703798035 		0.7814800274806164  -0.006755368406830804 		Uiso   ? 		O 		-0.58355
O 1.0  		0.8844140124899632 		0.2843753067033075  -0.007881263141302604 		Uiso   ? 		O 		-0.58355
O 1.0  		0.881407709289853 		0.781970752772598  -0.007599789457684654 		Uiso   ? 		O 		-0.58355
O 1.0  		0.10859382414717501 		0.23333987633722644  -0.006192421039594903 		Uiso   ? 		O 		-0.58356
O 1.0  		0.10647914860466307 		0.7331435862204339  -0.007036842090448754 		Uiso   ? 		O 		-0.58356
O 1.0  		0.60988221239512 		0.23211306310727256  -0.009992315768437229 		Uiso   ? 		O 		-0.58356
O 1.0  		0.610335014166258 		0.7353518500343508  -0.011399684186526982 		Uiso   ? 		O 		-0.58356
O 1.0  		0.1532512042237665 		0.4178525861222888  -0.006473894723212853 		Uiso   ? 		O 		-0.58354
O 1.0  		0.1561312083039781 		0.9208460104033763  -0.00830347366672953 		Uiso   ? 		O 		-0.58354
O 1.0  		0.6553654814384453 		0.4178525861222888  -0.0068961052486397785 		Uiso   ? 		O 		-0.58354
O 1.0  		0.6541665052761159 		0.9186377465894594  -0.006755368406830804 		Uiso   ? 		O 		-0.58354
O 1.0  		0.25922491130422665 		0.32338796741584064  -0.026317789418278337 		Uiso   ? 		O 		-0.56721
O 1.0  		0.2538154775176273 		0.820001962901168  -0.025614105209233462 		Uiso   ? 		O 		-0.56721
O 1.0  		0.7599415677260474 		0.32314260476984985  -0.02378452626571679 		Uiso   ? 		O 		-0.56721
O 1.0  		0.7560612321140348 		0.8219648640690942  -0.025473368367424486 		Uiso   ? 		O 		-0.56721
O 1.0  		0.3123440456596813 		0.15678673078810484  -0.06727221038469008 		Uiso   ? 		O 		-0.72725
O 1.0  		0.3150444289129956 		0.6602708803611739  -0.06600557880840931 		Uiso   ? 		O 		-0.72725
O 1.0  		0.8153587481548061 		0.16071253312395722  -0.06684999985926315 		Uiso   ? 		O 		-0.72725
O 1.0  		0.8154476659802308 		0.6521739130434783  -0.06628705249202725 		Uiso   ? 		O 		-0.72725
O 1.0  		0.29534273804533756 		0.37565021101187557  -0.007036842090448754 		Uiso   ? 		O 		-0.58355
O 1.0  		0.2922049574634986 		0.8712827559132399  -0.006755368406830804 		Uiso   ? 		O 		-0.58355
O 1.0  		0.7948413945011976 		0.3746687604279125  -0.004222105254269252 		Uiso   ? 		O 		-0.58355
O 1.0  		0.795112254299479 		0.8720188438512121  -0.006614631565021828 		Uiso   ? 		O 		-0.58355
O 1.0  		0.39643186561017857 		0.19874374325252728  -0.007881263141302604 		Uiso   ? 		O 		-0.92578
O 1.0  		0.39625367334121664 		0.6973206399057809  -0.007036842090448754 		Uiso   ? 		O 		-0.92578
O 1.0  		0.8978188618944202 		0.19898910589851804  -0.006333157881403878 		Uiso   ? 		O 		-0.92578
O 1.0  		0.8964555390049296 		0.6973206399057809  -0.005910947355976953 		Uiso   ? 		O 		-0.92578
O 1.0  		0.31549852889919205 		0.1562960054961233  0.08373842087634016 		Uiso   ? 		O 		-0.55543
O 1.0  		0.31493702325385114 		0.6570811659632938  0.08542726297804787 		Uiso   ? 		O 		-0.55543
O 1.0  		0.8129468199454691 		0.1580135440180587  0.08655315771251967 		Uiso   ? 		O 		-0.55543
O 1.0  		0.8143458692962625 		0.6563450780253214  0.08584947350347479 		Uiso   ? 		O 		-0.55543
O 1.0  		0.3291294220497341 		0.19800765531455494  -0.0068961052486397785 		Uiso   ? 		O 		-0.92578
O 1.0  		0.3291637199531017 		0.6965845519678084  -0.006333157881403878 		Uiso   ? 		O 		-0.92578
O 1.0  		0.8302469870936297 		0.19898910589851804  -0.0068961052486397785 		Uiso   ? 		O 		-0.92578
O 1.0  		0.8271990169252393 		0.6943762881538915  -0.006755368406830804 		Uiso   ? 		O 		-0.92578
O 1.0  		0.3282955957231428 		0.13004220237511044  -0.006755368406830804 		Uiso   ? 		O 		-0.92578
O 1.0  		0.3264503514209768 		0.6291098243203456  -0.006755368406830804 		Uiso   ? 		O 		-0.92578
O 1.0  		0.8314241803543005 		0.13249582883501818  -0.006614631565021828 		Uiso   ? 		O 		-0.92578
O 1.0  		0.831425608912236 		0.6305820001962902  -0.006614631565021828 		Uiso   ? 		O 		-0.92578
O 1.0  		0.20726904333368656 		0.3852193542055158  -0.007177578932257728 		Uiso   ? 		O 		-0.92578
O 1.0  		0.20844912603526197 		0.8882127784866033  -0.007599789457684654 		Uiso   ? 		O 		-0.92578
O 1.0  		0.7086319678953439 		0.38669153008146046  -0.006473894723212853 		Uiso   ? 		O 		-0.92578
O 1.0  		0.7089444946619053 		0.8862498773186771  -0.008162736824920554 		Uiso   ? 		O 		-0.92578
O 1.0  		0.20964016483773393 		0.3206889783099421  -0.0068961052486397785 		Uiso   ? 		O 		-0.92578
O 1.0  		0.20598759349778725 		0.8165668858572971  -0.00830347366672953 		Uiso   ? 		O 		-0.92578
O 1.0  		0.7095966709836852 		0.32019825301796057  -0.007318315774066704 		Uiso   ? 		O 		-0.92578
O 1.0  		0.7084217665439401 		0.8197566002551773  -0.00802199998311158 		Uiso   ? 		O 		-0.92578
O 1.0  		0.1389619502426013 		0.3187260771420159  -0.006755368406830804 		Uiso   ? 		O 		-0.92578
O 1.0  		0.1410489347015113 		0.8209834134851312  -0.007036842090448754 		Uiso   ? 		O 		-0.92578
O 1.0  		0.6425636586635868 		0.3187260771420159  -0.007599789457684654 		Uiso   ? 		O 		-0.92578
O 1.0  		0.6408258200205653 		0.8209834134851312  -0.008162736824920554 		Uiso   ? 		O 		-0.92578
O 1.0  		0.17408171758894891 		0.4131906958484641  0.10484894714768643 		Uiso   ? 		O 		-0.58306
O 1.0  		0.1731193033215333 		0.9127490430856807  0.1049896839894954 		Uiso   ? 		O 		-0.58306
O 1.0  		0.6753219623917253 		0.41441750907841796  0.10541189451492233 		Uiso   ? 		O 		-0.58306
O 1.0  		0.6736804106390409 		0.9117675925017177  0.10513042083130437 		Uiso   ? 		O 		-0.58306
O 1.0  		0.42568696259384026 		0.16758268721169892  0.10372305241321463 		Uiso   ? 		O 		-0.58306
O 1.0  		0.4248712998078897 		0.6661595838649524  0.10527115767311335 		Uiso   ? 		O 		-0.58306
O 1.0  		0.9252184883951324 		0.16709196191971737  0.10484894714768643 		Uiso   ? 		O 		-0.58306
O 1.0  		0.9251541782622035 		0.6641966826970263  0.10611557872396721 		Uiso   ? 		O 		-0.58306
O 1.0  		0.27302591337985044 		0.11384826773971932  -0.0474283156896246 		Uiso   ? 		O 		-0.56223
O 1.0  		0.2731171523512345 		0.6116890764550005  -0.04897642094952332 		Uiso   ? 		O 		-0.56223
O 1.0  		0.7761938438333289 		0.1121307292177839  -0.04785052621505153 		Uiso   ? 		O 		-0.56223
O 1.0  		0.7772641997298005 		0.6055550103052312  -0.04756905253143358 		Uiso   ? 		O 		-0.56223
O 1.0  		0.36463190215248203 		0.15384237903621553  -0.06811663143554393 		Uiso   ? 		O 		-0.72731
O 1.0  		0.36750310860984575 		0.6551182647953676  -0.06811663143554393 		Uiso   ? 		O 		-0.72731
O 1.0  		0.8701066763021126 		0.1580135440180587  -0.06755368406830803 		Uiso   ? 		O 		-0.72731
O 1.0  		0.8710807453082471 		0.6563450780253214  -0.06670926301745418 		Uiso   ? 		O 		-0.72731
O 1.0  		0.20685383453385475 		0.43453724604966143  0.00942936840120133 		Uiso   ? 		O 		-0.60243
O 1.0  		0.2089079496473325 		0.936303857100795  0.008725684192156455 		Uiso   ? 		O 		-0.60243
O 1.0  		0.7086088700947388 		0.4355186966336245  0.01027378945205518 		Uiso   ? 		O 		-0.60243
O 1.0  		0.706910377274038 		0.9336048679948966  0.010133052610246204 		Uiso   ? 		O 		-0.60243
O 1.0  		0.17712231869242673 		0.41417214643242717  0.03448052624319889 		Uiso   ? 		O 		-0.58477
O 1.0  		0.17564511366690327 		0.9139758563156346  0.03293242098330017 		Uiso   ? 		O 		-0.58477
O 1.0  		0.6781741450454579 		0.41417214643242717  0.03490273676862582 		Uiso   ? 		O 		-0.58477
O 1.0  		0.6724054696050638 		0.9117675925017177  0.03307315782510914 		Uiso   ? 		O 		-0.58477
O 1.0  		0.37391805219007634 		0.15924035724801258  0.08458284192719402 		Uiso   ? 		O 		-0.55543
O 1.0  		0.3703969582318584 		0.6570811659632938  0.08627168402890172 		Uiso   ? 		O 		-0.55543
O 1.0  		0.8702534277835777 		0.1570320934340956  0.08556799981985684 		Uiso   ? 		O 		-0.55543
O 1.0  		0.8705571569272914 		0.6548729021493769  0.08570873666166581 		Uiso   ? 		O 		-0.55543
O 1.0  		0.27023482712506347 		0.10231622337815291  0.1044267366222595 		Uiso   ? 		O 		-0.58306
O 1.0  		0.2708496544774031 		0.6016292079693788  0.10456747346406847 		Uiso   ? 		O 		-0.58306
O 1.0  		0.7682219806520326 		0.10256158602414368  0.10597484188215824 		Uiso   ? 		O 		-0.58306
O 1.0  		0.7667447756265091 		0.6023652959073511  0.10484894714768643 		Uiso   ? 		O 		-0.58306
O 1.0  		0.44500230466019225 		0.19898910589851804  0.009288631559392356 		Uiso   ? 		O 		-0.60244
O 1.0  		0.4433431576618121 		0.6929041122779468  0.007881263141302604 		Uiso   ? 		O 		-0.60244
O 1.0  		0.9471647253200397 		0.1965354794386103  0.010414526293864156 		Uiso   ? 		O 		-0.60244
O 1.0  		0.9472494878145352 		0.6990381784277163  0.01111821050290903 		Uiso   ? 		O 		-0.60244
O 1.0  		0.42409212572838906 		0.16439297281381884  0.03222873677425529 		Uiso   ? 		O 		-0.58477
O 1.0  		0.4234079403241673 		0.6649327706349986  0.03349536835053606 		Uiso   ? 		O 		-0.58477
O 1.0  		0.9247189717367612 		0.16439297281381884  0.03448052624319889 		Uiso   ? 		O 		-0.58477
O 1.0  		0.9242713482274532 		0.6637059574050447  0.03363610519234504 		Uiso   ? 		O 		-0.58477
O 1.0  		0.2661228315530675 		0.4136814211404456  0.1055526313567313 		Uiso   ? 		O 		-0.59953
O 1.0  		0.26741679639067584 		0.9152026695455885  0.10456747346406847 		Uiso   ? 		O 		-0.59953
O 1.0  		0.7669862394563534 		0.41245460791049177  0.10569336819854028 		Uiso   ? 		O 		-0.59953
O 1.0  		0.768157524535081 		0.9137304936696439  0.10428599978045053 		Uiso   ? 		O 		-0.59953
O 1.0  		0.4255574330560702 		0.2608204926881932  0.1055526313567313 		Uiso   ? 		O 		-0.59953
O 1.0  		0.4240714304076989 		0.7589066640494652  0.1049896839894954 		Uiso   ? 		O 		-0.59953
O 1.0  		0.9242061288226121 		0.25983904210423003  0.10569336819854028 		Uiso   ? 		O 		-0.59953
O 1.0  		0.9236927666224398 		0.7581705761114929  0.10583410504034925 		Uiso   ? 		O 		-0.59953
O 1.0  		0.2578843452383741 		0.43502797134164295  0.009851578926628256 		Uiso   ? 		O 		-0.59987
O 1.0  		0.26033057135107873 		0.936303857100795  0.00942936840120133 		Uiso   ? 		O 		-0.59987
O 1.0  		0.7591486617637347 		0.43502797134164295  0.011540421028335957 		Uiso   ? 		O 		-0.59987
O 1.0  		0.758186247496319 		0.9345863185788597  0.00942936840120133 		Uiso   ? 		O 		-0.59987
O 1.0  		0.2698907135869826 		0.41441750907841796  0.034058315717771966 		Uiso   ? 		O 		-0.60206
O 1.0  		0.26795565887136796 		0.9137304936696439  0.03391757887596299 		Uiso   ? 		O 		-0.60206
O 1.0  		0.7703050694230251 		0.41441750907841796  0.03504347361043479 		Uiso   ? 		O 		-0.60206
O 1.0  		0.7699472563271658 		0.913485131023653  0.03349536835053606 		Uiso   ? 		O 		-0.60206
O 1.0  		0.44784898475901563 		0.2510059868485622  0.00942936840120133 		Uiso   ? 		O 		-0.59988
O 1.0  		0.4461657660380512 		0.7461478064579449  0.01083673681929108 		Uiso   ? 		O 		-0.59988
O 1.0  		0.947060614728834 		0.2473255471587006  0.009851578926628256 		Uiso   ? 		O 		-0.59988
O 1.0  		0.9470555668098808 		0.7500736087937973  0.009288631559392356 		Uiso   ? 		O 		-0.59988
O 1.0  		0.36927943281219766 		0.2137108646579645  -0.06853884196097086 		Uiso   ? 		O 		-0.72750
O 1.0  		0.3666652406113143 		0.7108155854352733  -0.06670926301745418 		Uiso   ? 		O 		-0.72750
O 1.0  		0.8697266579936724 		0.21420158994994604  -0.06699073670107213 		Uiso   ? 		O 		-0.72750
O 1.0  		0.8706678576543746 		0.7120423986652273  -0.06783515775192599 		Uiso   ? 		O 		-0.72750
O 1.0  		0.4140305513151889 		0.16169398370792032  -0.05094673673484897 		Uiso   ? 		O 		-0.56232
O 1.0  		0.41177560076810027 		0.6578172539012661  -0.04897642094952332 		Uiso   ? 		O 		-0.56232
O 1.0  		0.9185984237074849 		0.16660123662773582  -0.04827273674047845 		Uiso   ? 		O 		-0.56232
O 1.0  		0.9194016695095698 		0.6671410344489155  -0.04841347358228742 		Uiso   ? 		O 		-0.56232
O 1.0  		0.4249833800839866 		0.25542251447639613  0.03490273676862582 		Uiso   ? 		O 		-0.60207
O 1.0  		0.4243408616480449 		0.7581705761114929  0.03391757887596299 		Uiso   ? 		O 		-0.60207
O 1.0  		0.925406533542877 		0.2571400529983316  0.03448052624319889 		Uiso   ? 		O 		-0.60207
O 1.0  		0.9249019689655527 		0.7571891255275297  0.03349536835053606 		Uiso   ? 		O 		-0.60207
O 1.0  		0.36271496196858655 		0.25370497595446073  -0.049398631474950244 		Uiso   ? 		O 		-0.56232
O 1.0  		0.36752265169950027 		0.7537540484836589  -0.04756905253143358 		Uiso   ? 		O 		-0.56232
O 1.0  		0.8637098472536012 		0.25444106389243304  -0.04785052621505153 		Uiso   ? 		O 		-0.56232
O 1.0  		0.8593211973603694 		0.7488467955638435  -0.0485542104240964 		Uiso   ? 		O 		-0.56232
O 1.0  		0.3635015051129996 		0.2591029541662578  0.10484894714768643 		Uiso   ? 		O 		-0.58306
O 1.0  		0.3619256920511797 		0.7574344881735205  0.1055526313567313 		Uiso   ? 		O 		-0.58306
O 1.0  		0.8637362401221449 		0.2595936794582393  0.10569336819854028 		Uiso   ? 		O 		-0.58306
O 1.0  		0.8600179300913338 		0.7544901364216313  0.10414526293864156 		Uiso   ? 		O 		-0.58306
O 1.0  		0.27061166402455394 		0.10476984983806066  0.03307315782510914 		Uiso   ? 		O 		-0.58478
O 1.0  		0.27106214464973266 		0.6016292079693788  0.03335463150872709 		Uiso   ? 		O 		-0.58478
O 1.0  		0.769954771376101 		0.10305231131612523  0.03391757887596299 		Uiso   ? 		O 		-0.58478
O 1.0  		0.7691150368675661 		0.6028560211993327  0.03532494729405274 		Uiso   ? 		O 		-0.58478
O 1.0  		0.44027705627781455 		0.19506330356266566  -0.02772515783636809 		Uiso   ? 		O 		-0.56720
O 1.0  		0.4377198051449478 		0.6914319364020022  -0.026739999943705264 		Uiso   ? 		O 		-0.56720
O 1.0  		0.9437079414947507 		0.1972715673765826  -0.02476968415837961 		Uiso   ? 		O 		-0.56720
O 1.0  		0.9438977885024313 		0.6965845519678084  -0.02378452626571679 		Uiso   ? 		O 		-0.56720
O 1.0  		0.36193953759298064 		0.25640396506035923  0.03433978940138992 		Uiso   ? 		O 		-0.58478
O 1.0  		0.3635686723617994 		0.7581705761114929  0.03504347361043479 		Uiso   ? 		O 		-0.58478
O 1.0  		0.8640056713624907 		0.25885759152026694  0.03462126308500787 		Uiso   ? 		O 		-0.58478
O 1.0  		0.8612359300572944 		0.7552262243596035  0.03490273676862582 		Uiso   ? 		O 		-0.58478
O 1.0  		0.37437919694810634 		0.2137108646579645  0.08514578929442991 		Uiso   ? 		O 		-0.55543
O 1.0  		0.3691669792341001 		0.7132692118951811  0.0852865261362389 		Uiso   ? 		O 		-0.55543
O 1.0  		0.8687211482000412 		0.2134655020119737  0.08556799981985684 		Uiso   ? 		O 		-0.55543
O 1.0  		0.8720654784472326 		0.7122877613112181  0.08500505245262094 		Uiso   ? 		O 		-0.55543
O 1.0  		0.11345751334915957 		0.2583668662282854  0.03448052624319889 		Uiso   ? 		O 		-0.58478
O 1.0  		0.11465287015047138 		0.7584159387574837  0.033776842034154014 		Uiso   ? 		O 		-0.58478
O 1.0  		0.6126955361875215 		0.25983904210423003  0.03335463150872709 		Uiso   ? 		O 		-0.58478
O 1.0  		0.6138580236434013 		0.7593973893414467  0.03194726309063734 		Uiso   ? 		O 		-0.58478
O 1.0  		0.333275114905119 		0.24879772303464523  -0.02519189468380654 		Uiso   ? 		O 		-0.56721
O 1.0  		0.3343542684244385 		0.743939542644028  -0.024910421000188587 		Uiso   ? 		O 		-0.56721
O 1.0  		0.8325372094660652 		0.249043085680636  -0.025473368367424486 		Uiso   ? 		O 		-0.56721
O 1.0  		0.8293906312613784 		0.7429580920600648  -0.02476968415837961 		Uiso   ? 		O 		-0.56721
O 1.0  		0.26887958757945324 		0.3533222102267151  0.03307315782510914 		Uiso   ? 		O 		-0.58477
O 1.0  		0.26736951320849756 		0.852635194817941  0.032650947299682216 		Uiso   ? 		O 		-0.58477
O 1.0  		0.768034276481255 		0.35037785847482583  0.03448052624319889 		Uiso   ? 		O 		-0.58477
O 1.0  		0.7667038229371967 		0.8492001177740701  0.03433978940138992 		Uiso   ? 		O 		-0.58477
O 1.0  		0.12061228518657012 		0.2684267347139072  -0.04813199989866948 		Uiso   ? 		O 		-0.56235
O 1.0  		0.11828511947172854 		0.7682304445971145  -0.04756905253143358 		Uiso   ? 		O 		-0.56235
O 1.0  		0.6262490849174023 		0.26867209735989794  -0.049820842000377175 		Uiso   ? 		O 		-0.56235
O 1.0  		0.621461847548055 		0.7682304445971145  -0.050102315683995126 		Uiso   ? 		O 		-0.56235
O 1.0  		0.1139811017301152 		0.25983904210423003  0.1055526313567313 		Uiso   ? 		O 		-0.58306
O 1.0  		0.11306683090786807 		0.756943762881539  0.10527115767311335 		Uiso   ? 		O 		-0.58306
O 1.0  		0.6129825626735633 		0.2625380312101286  0.10569336819854028 		Uiso   ? 		O 		-0.58306
O 1.0  		0.6139061670885697 		0.756943762881539  0.10569336819854028 		Uiso   ? 		O 		-0.58306
O 1.0  		0.17246048785495408 		0.40484836588477774  -0.04869494726590537 		Uiso   ? 		O 		-0.56222
O 1.0  		0.17677098207345587 		0.9085778781038375  -0.049398631474950244 		Uiso   ? 		O 		-0.56222
O 1.0  		0.6795037060014921 		0.4070566296986947  -0.049820842000377175 		Uiso   ? 		O 		-0.56222
O 1.0  		0.6773737563592437 		0.9098046913337915  -0.04897642094952332 		Uiso   ? 		O 		-0.56222
O 1.0  		0.2626933008593126 		0.354549023456669  -0.04953936831675922 		Uiso   ? 		O 		-0.56227
O 1.0  		0.26209012824569156 		0.8531259201099225  -0.04756905253143358 		Uiso   ? 		O 		-0.56227
O 1.0  		0.7655589307270129 		0.35307684758072433  -0.047006105164197676 		Uiso   ? 		O 		-0.56227
O 1.0  		0.7621364448050916 		0.8523898321719503  -0.049398631474950244 		Uiso   ? 		O 		-0.56227
O 1.0  		0.2677930649952213 		0.354549023456669  0.10597484188215824 		Uiso   ? 		O 		-0.58306
O 1.0  		0.2681625328297993 		0.8533712827559133  0.10456747346406847 		Uiso   ? 		O 		-0.58306
O 1.0  		0.7665556428977962 		0.35209539699676123  0.10667852609120311 		Uiso   ? 		O 		-0.58306
O 1.0  		0.7685440193204096 		0.8528805574639318  0.10400452609683258 		Uiso   ? 		O 		-0.58306
O 1.0  		0.29097650399877656 		0.1455000490725292  0.007036842090448754 		Uiso   ? 		O 		-1.13516
O 1.0  		0.29132190011077025 		0.6455491216017274  0.00802199998311158 		Uiso   ? 		O 		-1.13516
O 1.0  		0.7924621083193147 		0.14721758759446463  0.00858494735034748 		Uiso   ? 		O 		-1.13516
O 1.0  		0.7918501380828458 		0.6440769457257828  0.008444210508538504 		Uiso   ? 		O 		-1.13516
O 1.0  		0.38119501682537804 		0.14574541171851998  0.0074590526158756785 		Uiso   ? 		O 		-1.13516
O 1.0  		0.37903867431458593 		0.6433408577878104  0.007740526299493629 		Uiso   ? 		O 		-1.13516
O 1.0  		0.8841833264519593 		0.1445185984885661  0.0074590526158756785 		Uiso   ? 		O 		-1.13516
O 1.0  		0.8832537815299758 		0.6445676710177642  0.007599789457684654 		Uiso   ? 		O 		-1.13516
O 1.0  		0.38338528393753707 		0.2355481401511434  0.007036842090448754 		Uiso   ? 		O 		-1.13516
O 1.0  		0.3819978893254623 		0.73510648738836  0.007740526299493629 		Uiso   ? 		O 		-1.13516
O 1.0  		0.8825575680850346 		0.23603886544312494  0.007318315774066704 		Uiso   ? 		O 		-1.13516
O 1.0  		0.881316924954425 		0.7346157620963786  0.007740526299493629 		Uiso   ? 		O 		-1.13516
O 1.0  		0.3162827508976458 		0.15531455491216017  0.05347999988741053 		Uiso   ? 		O 		-0.55402
O 1.0  		0.31526339556221367 		0.6556089900873492  0.055028105147309256 		Uiso   ? 		O 		-0.55402
O 1.0  		0.8159786234260991 		0.1572774560800864  0.05559105251454516 		Uiso   ? 		O 		-0.55402
O 1.0  		0.8140764380559166 		0.6570811659632938  0.05488736830550028 		Uiso   ? 		O 		-0.55402
O 1.0  		0.29097650399877656 		0.1455000490725292  -0.021814210480391137 		Uiso   ? 		O 		-1.12612
O 1.0  		0.2901367694902417 		0.6453037589557366  -0.021251263113155235 		Uiso   ? 		O 		-1.12612
O 1.0  		0.7932551279406163 		0.14795367553243696  -0.02167347363858216 		Uiso   ? 		O 		-1.12612
O 1.0  		0.7921765103912084 		0.6426047698498382  -0.02111052627134626 		Uiso   ? 		O 		-1.12612
O 1.0  		0.37945342847846175 		0.143537147904603  -0.022517894689436012 		Uiso   ? 		O 		-1.12612
O 1.0  		0.37855675290191043 		0.6440769457257828  -0.022095684164009085 		Uiso   ? 		O 		-1.12612
O 1.0  		0.8825579413870352 		0.14721758759446463  -0.022658631531244987 		Uiso   ? 		O 		-1.12612
O 1.0  		0.8830172196350621 		0.6457944842477182  -0.02082905258772831 		Uiso   ? 		O 		-1.12612
O 1.0  		0.1542886094408505 		0.3714790460300324  -0.021814210480391137 		Uiso   ? 		O 		-1.12612
O 1.0  		0.15573812338277193 		0.8737363823731475  -0.023643789423907813 		Uiso   ? 		O 		-1.12612
O 1.0  		0.6574982068626091 		0.371969771322014  -0.02167347363858216 		Uiso   ? 		O 		-1.12612
O 1.0  		0.6565774595634736 		0.8737363823731475  -0.022658631531244987 		Uiso   ? 		O 		-1.12612
O 1.0  		0.38214321224899206 		0.23603886544312494  -0.02223642100581806 		Uiso   ? 		O 		-1.12613
O 1.0  		0.38278211132391604 		0.734125036804397  -0.021251263113155235 		Uiso   ? 		O 		-1.12613
O 1.0  		0.8823450779127051 		0.23603886544312494  -0.02139199995496421 		Uiso   ? 		O 		-1.12613
O 1.0  		0.8811285065046797 		0.7333889488664246  -0.021954947322200113 		Uiso   ? 		O 		-1.12613
O 1.0  		0.15547411336337968 		0.28290313082736285  -0.021251263113155235 		Uiso   ? 		O 		-1.12614
O 1.0  		0.1536858101292302 		0.7812346648346257  -0.022095684164009085 		Uiso   ? 		O 		-1.12614
O 1.0  		0.6594679327835922 		0.28241240553538133  -0.023221578898480887 		Uiso   ? 		O 		-1.12614
O 1.0  		0.6569699438647011 		0.7844243792325057  -0.023080842056671914 		Uiso   ? 		O 		-1.12614
O 1.0  		0.371907032602814 		0.15776818137206794  0.05446515778007335 		Uiso   ? 		O 		-0.55402
O 1.0  		0.3687211085758065 		0.6558543527333399  0.05460589462188233 		Uiso   ? 		O 		-0.55402
O 1.0  		0.8677276174382077 		0.15580528020414175  0.05488736830550028 		Uiso   ? 		O 		-0.55402
O 1.0  		0.8701081048600481 		0.6560997153793307  0.05488736830550028 		Uiso   ? 		O 		-0.55402
O 1.0  		0.37063538663677564 		0.2117479634900383  0.05390221041283745 		Uiso   ? 		O 		-0.55402
O 1.0  		0.37143863243886055 		0.7122877613112181  0.05432442093826438 		Uiso   ? 		O 		-0.55402
O 1.0  		0.8741889516125925 		0.21420158994994604  0.05460589462188233 		Uiso   ? 		O 		-0.55402
O 1.0  		0.8723437073104265 		0.7132692118951811  0.05432442093826438 		Uiso   ? 		O 		-0.55402
O 1.0  		0.16796985352353153 		0.30449504367455105  0.05460589462188233 		Uiso   ? 		O 		-0.55402
O 1.0  		0.16744121722362273 		0.805770929433703  0.05390221041283745 		Uiso   ? 		O 		-0.55402
O 1.0  		0.6664805954314562 		0.30621258219648645  0.05559105251454516 		Uiso   ? 		O 		-0.55402
O 1.0  		0.6667097882614575 		0.8013544018058691  0.053620736729219506 		Uiso   ? 		O 		-0.55402
O 1.0  		0.1682032340094956 		0.36190990283639224  0.05460589462188233 		Uiso   ? 		O 		-0.55402
O 1.0  		0.1665945516022434 		0.8597507115516735  0.053620736729219506 		Uiso   ? 		O 		-0.55402
O 1.0  		0.6681268708100148 		0.36092845225242914  0.05516884198911823 		Uiso   ? 		O 		-0.55402
O 1.0  		0.666272828885001 		0.8582785356757289  0.0541836840964554 		Uiso   ? 		O 		-0.55402
O 1.0  		0.3314196444221697 		0.24806163509667287  0.009570105243010305 		Uiso   ? 		O 		-0.60243
O 1.0  		0.3322798312922711 		0.7478653449798803  0.010414526293864156 		Uiso   ? 		O 		-0.60243
O 1.0  		0.8315557713950184 		0.24708018451270977  0.011258947344718006 		Uiso   ? 		O 		-0.60243
O 1.0  		0.8287378866446534 		0.7459024438119541  0.01083673681929108 		Uiso   ? 		O 		-0.60243
O 1.0  		0.22405527998672975 		0.36141917754441066  0.0541836840964554 		Uiso   ? 		O 		-0.55402
O 1.0  		0.2223239178205967 		0.8590146236137011  0.053198526203792576 		Uiso   ? 		O 		-0.55402
O 1.0  		0.7243381584410435 		0.3594562763764845  0.055028105147309256 		Uiso   ? 		O 		-0.55402
O 1.0  		0.7235553650005253 		0.8585238983217196  0.053620736729219506 		Uiso   ? 		O 		-0.55402
O 1.0  		0.16727544193852645 		0.30523113161252335  -0.06628705249202725 		Uiso   ? 		O 		-0.72747
O 1.0  		0.16440061612014495 		0.80478947884974  -0.06713147354288111 		Uiso   ? 		O 		-0.72747
O 1.0  		0.6741719086035993 		0.30842084601040337  -0.06797589459373496 		Uiso   ? 		O 		-0.72747
O 1.0  		0.6672838412335411 		0.8067523800176661  -0.06853884196097086 		Uiso   ? 		O 		-0.72747
O 1.0  		0.16635974255834396 		0.30424968102856026  0.08556799981985684 		Uiso   ? 		O 		-0.55543
O 1.0  		0.1668606877746507 		0.8050348414957308  0.0852865261362389 		Uiso   ? 		O 		-0.55543
O 1.0  		0.6675999873611204 		0.30547649425851414  0.08627168402890172 		Uiso   ? 		O 		-0.55543
O 1.0  		0.6666287754708569 		0.8033173029737953  0.08430136824357606 		Uiso   ? 		O 		-0.55543
O 1.0  		0.16878376345846768 		0.36264599077436455  -0.06755368406830803 		Uiso   ? 		O 		-0.72716
O 1.0  		0.17101749939884286 		0.8639218765335166  -0.06699073670107213 		Uiso   ? 		O 		-0.72716
O 1.0  		0.6714697724992708 		0.36166454019040145  -0.067694420910117 		Uiso   ? 		O 		-0.72716
O 1.0  		0.66985461361513 		0.8641672391795073  -0.0682573682773529 		Uiso   ? 		O 		-0.72716
O 1.0  		0.16422933828013953 		0.3565119246245952  0.08500505245262094 		Uiso   ? 		O 		-0.55543
O 1.0  		0.1662353099484487 		0.8607321621356365  0.08486431561081197 		Uiso   ? 		O 		-0.55543
O 1.0  		0.6677588315333721 		0.3601923643144568  0.08556799981985684 		Uiso   ? 		O 		-0.55543
O 1.0  		0.6679246068184685 		0.8607321621356365  0.084723578769003 		Uiso   ? 		O 		-0.55543
O 1.0  		0.22309791363826714 		0.3582294631465306  -0.06684999985926315 		Uiso   ? 		O 		-0.72713
O 1.0  		0.2241553165809617 		0.8609775247816273  -0.067694420910117 		Uiso   ? 		O 		-0.72713
O 1.0  		0.728377792861264 		0.3658357051722446  -0.06600557880840931 		Uiso   ? 		O 		-0.72713
O 1.0  		0.7253626920383058 		0.8617136127195997  -0.06938326301182471 		Uiso   ? 		O 		-0.72713
O 1.0  		0.22452192729966888 		0.36362744135832764  0.08542726297804787 		Uiso   ? 		O 		-0.55543
O 1.0  		0.22275769578810364 		0.8607321621356365  0.08359768403453119 		Uiso   ? 		O 		-0.55543
O 1.0  		0.722180387372316 		0.35896555108450295  0.08613094718709274 		Uiso   ? 		O 		-0.55543
O 1.0  		0.7225017117617254 		0.860241436843655  0.08401989455995812 		Uiso   ? 		O 		-0.55543
O 1.0  		0.3336606357684684 		0.14034743350672294  0.024628947316570636 		Uiso   ? 		O 		-0.98153
O 1.0  		0.33180659384345457 		0.6376975169300226  0.024628947316570636 		Uiso   ? 		O 		-0.98153
O 1.0  		0.8342786841539925 		0.1386298949847875  0.025473368367424486 		Uiso   ? 		O 		-0.98153
O 1.0  		0.8324334398518266 		0.6376975169300226  0.02519189468380654 		Uiso   ? 		O 		-0.98153
O 1.0  		0.24609316151005522 		0.3731965845519678  -0.022517894689436012 		Uiso   ? 		O 		-1.12611
O 1.0  		0.24637281893118457 		0.8722642064972029  -0.022799368373053963 		Uiso   ? 		O 		-1.12611
O 1.0  		0.747079249172222 		0.3722151339680047  -0.02082905258772831 		Uiso   ? 		O 		-1.12611
O 1.0  		0.7475801943885287 		0.8730002944351752  -0.022377157847627036 		Uiso   ? 		O 		-1.12611
O 1.0  		0.38981827739941943 		0.193591127686721  0.02448821047476166 		Uiso   ? 		O 		-0.98153
O 1.0  		0.38779341227035613 		0.6931494749239376  0.02533263152561551 		Uiso   ? 		O 		-0.98153
O 1.0  		0.8883859603753607 		0.1945725782706841  0.02533263152561551 		Uiso   ? 		O 		-0.98153
O 1.0  		0.889515578485808 		0.6936402002159192  0.026317789418278337 		Uiso   ? 		O 		-0.98153
O 1.0  		0.33393336207675317 		0.193591127686721  0.024910421000188587 		Uiso   ? 		O 		-0.98153
O 1.0  		0.3332163073270991 		0.6936402002159192  0.025473368367424486 		Uiso   ? 		O 		-0.98153
O 1.0  		0.8341111560178819 		0.19481794091667487  0.025614105209233462 		Uiso   ? 		O 		-0.98153
O 1.0  		0.8336306631631416 		0.6936402002159192  0.02519189468380654 		Uiso   ? 		O 		-0.98153
O 1.0  		0.3332685247692415 		0.14083815879870448  -0.039124842022895075 		Uiso   ? 		O 		-0.91718
O 1.0  		0.33228203877924156 		0.641623319265875  -0.03771747360480532 		Uiso   ? 		O 		-0.91718
O 1.0  		0.8345745082628824 		0.14304642261262146  -0.03771747360480532 		Uiso   ? 		O 		-0.91718
O 1.0  		0.8364883483717835 		0.6411325939738934  -0.03771747360480532 		Uiso   ? 		O 		-0.91718
O 1.0  		0.38541292484851586 		0.19285503974874868  -0.039124842022895075 		Uiso   ? 		O 		-0.91726
O 1.0  		0.385381484061019 		0.6904504858180391  -0.039969263073748915 		Uiso   ? 		O 		-0.91726
O 1.0  		0.8864078101335305 		0.193591127686721  -0.03813968413023225 		Uiso   ? 		O 		-0.91726
O 1.0  		0.8855264086567156 		0.6911865737560114  -0.0378582104466143 		Uiso   ? 		O 		-0.91726
Ti 1.0  		0.3752869589684313 		0.14795367553243696  0.4168625254381842 		Uiso   ? 		Ti 		2.08366
Ti 1.0  		0.3791067341514098 		0.6507017371675337  0.41897357806531876 		Uiso   ? 		Ti 		2.08366
Ti 1.0  		0.8775327135648389 		0.14991657670036315  0.4168625254381842 		Uiso   ? 		Ti 		2.08366
Ti 1.0  		0.8761365213299164 		0.6477573854156444  0.41756620964722907 		Uiso   ? 		Ti 		2.08366
Ti 1.0  		0.3752074070607996 		0.2213171066836785  0.417988420172656 		Uiso   ? 		Ti 		2.08326
Ti 1.0  		0.37799760072756255 		0.7245558936107567  0.4196772622743637 		Uiso   ? 		Ti 		2.08326
Ti 1.0  		0.8773962205891906 		0.224016095789577  0.4174254728054201 		Uiso   ? 		Ti 		2.08326
Ti 1.0  		0.8752398780783985 		0.7216115418588674  0.4184106306980829 		Uiso   ? 		Ti 		2.08326
Ti 1.0  		0.16222797657871543 		0.29173618608303076  0.4174254728054201 		Uiso   ? 		Ti 		2.08289
Ti 1.0  		0.15932028141490173 		0.7908038080282658  0.4191143149071278 		Uiso   ? 		Ti 		2.08289
Ti 1.0  		0.6611549012084513 		0.29173618608303076  0.417706946489038 		Uiso   ? 		Ti 		2.08289
Ti 1.0  		0.6617127874927745 		0.7917852586122289  0.4184106306980829 		Uiso   ? 		Ti 		2.08289
Ti 1.0  		0.1625822026385907 		0.3668171557562077  0.4185513675398919 		Uiso   ? 		Ti 		2.08337
Ti 1.0  		0.15994393871512302 		0.8651486897634705  0.4185513675398919 		Uiso   ? 		Ti 		2.08337
Ti 1.0  		0.6605364868201276 		0.3665717931102169  0.41869210438170085 		Uiso   ? 		Ti 		2.08337
Ti 1.0  		0.6614448171353975 		0.8639218765335166  0.417988420172656 		Uiso   ? 		Ti 		2.08337
Ti 1.0  		0.23494274336666374 		0.3653449798802631  0.4182698938562739 		Uiso   ? 		Ti 		2.08397
Ti 1.0  		0.23154432916732673 		0.8634311512415351  0.4191143149071278 		Uiso   ? 		Ti 		2.08397
Ti 1.0  		0.73475249803115 		0.3658357051722446  0.4185513675398919 		Uiso   ? 		Ti 		2.08397
Ti 1.0  		0.7360946063139269 		0.8649033271174796  0.41883284122350983 		Uiso   ? 		Ti 		2.08397
Ti 1.0  		0.31109965282517693 		0.15089802728432625  0.49032715686246914 		Uiso   ? 		Ti 		2.08144
Ti 1.0  		0.31087331711104643 		0.6519285503974875  0.49201599896417686 		Uiso   ? 		Ti 		2.08144
Ti 1.0  		0.8127320086271802 		0.15163411522229855  0.490890104229705 		Uiso   ? 		Ti 		2.08144
Ti 1.0  		0.8072656337725643 		0.6489841986455982  0.48920126212799736 		Uiso   ? 		Ti 		2.08144
Ti 1.0  		0.1584119510996318 		0.29345372460496616  0.4890605252861884 		Uiso   ? 		Ti 		2.08383
Ti 1.0  		0.1601396939047471 		0.7966925115320443  0.491030841071514 		Uiso   ? 		Ti 		2.08383
Ti 1.0  		0.6617354306574235 		0.29247227402100306  0.4904678937042781 		Uiso   ? 		Ti 		2.08383
Ti 1.0  		0.6624905330143398 		0.7954656983020906  0.4900456831788512 		Uiso   ? 		Ti 		2.08383
Ti 1.0  		0.15960501908001787 		0.36043772696044757  0.491312314755132 		Uiso   ? 		Ti 		2.08184
Ti 1.0  		0.16145544164401404 		0.8639218765335166  0.4904678937042781 		Uiso   ? 		Ti 		2.08184
Ti 1.0  		0.6622910281208209 		0.3594562763764845  0.490890104229705 		Uiso   ? 		Ti 		2.08184
Ti 1.0  		0.6641743200302492 		0.8634311512415351  0.4907493673878961 		Uiso   ? 		Ti 		2.08184
Ti 1.0  		0.37825448464116584 		0.21763666699381687  0.48976420949523325 		Uiso   ? 		Ti 		2.06719
Ti 1.0  		0.3781749004085005 		0.7176857395230151  0.4918752621223679 		Uiso   ? 		Ti 		2.06719
Ti 1.0  		0.8781957166873808 		0.22009029345372463  0.48976420949523325 		Uiso   ? 		Ti 		2.06719
Ti 1.0  		0.871053492176713 		0.7162135636470705  0.490890104229705 		Uiso   ? 		Ti 		2.06719
Ti 1.0  		0.22708708346735965 		0.36068308960643836  0.491312314755132 		Uiso   ? 		Ti 		2.06099
Ti 1.0  		0.22852779978643314 		0.861222887427618  0.4918752621223679 		Uiso   ? 		Ti 		2.06099
Ti 1.0  		0.7284981514741855 		0.35970163902247526  0.49032715686246914 		Uiso   ? 		Ti 		2.06099
Ti 1.0  		0.7297680445892096 		0.862449700657572  0.4915937884387499 		Uiso   ? 		Ti 		2.06099
Ti 1.0  		0.28850482661447396 		0.11335754244773777  0.45415778851756256 		Uiso   ? 		Ti 		2.06062
Ti 1.0  		0.29107373248605944 		0.6148787908528806  0.45612810430288825 		Uiso   ? 		Ti 		2.06062
Ti 1.0  		0.7920824633128751 		0.11458435567769164  0.4551429464102254 		Uiso   ? 		Ti 		2.06062
Ti 1.0  		0.7885044282866407 		0.6131612523309452  0.4526096832576639 		Uiso   ? 		Ti 		2.06062
Ti 1.0  		0.4132815198081267 		0.16954558837962508  0.4534541043085177 		Uiso   ? 		Ti 		2.06589
Ti 1.0  		0.41511434712642714 		0.6695946609088234  0.4558466306192702 		Uiso   ? 		Ti 		2.06589
Ti 1.0  		0.9164429737847167 		0.1724899401315144  0.4534541043085177 		Uiso   ? 		Ti 		2.06589
Ti 1.0  		0.9118506313420033 		0.6686132103248602  0.4548614727266075 		Uiso   ? 		Ti 		2.06589
Ti 1.0  		0.356318019261086 		0.2375110413190696  0.45472073588479844 		Uiso   ? 		Ti 		2.06240
Ti 1.0  		0.3588869251326715 		0.7390322897242124  0.45697252535374205 		Uiso   ? 		Ti 		2.06240
Ti 1.0  		0.856798113787993 		0.2384924919030327  0.4550022095684164 		Uiso   ? 		Ti 		2.06240
Ti 1.0  		0.8540043007602123 		0.7360879379723232  0.4554244200938434 		Uiso   ? 		Ti 		2.06240
Ti 1.0  		0.12356539702255863 		0.2760329767396212  0.4528911569412818 		Uiso   ? 		Ti 		2.06438
Ti 1.0  		0.12236642086022909 		0.7768181372067917  0.4544392622011805 		Uiso   ? 		Ti 		2.06438
Ti 1.0  		0.6233094129961805 		0.2755422514476396  0.45472073588479844 		Uiso   ? 		Ti 		2.06438
Ti 1.0  		0.6244806980749079 		0.7768181372067917  0.45373557799213565 		Uiso   ? 		Ti 		2.06438
Ti 1.0  		0.18130174115623413 		0.4004318382569438  0.45655031482831515 		Uiso   ? 		Ti 		2.05620
Ti 1.0  		0.18040506557968283 		0.9009716360781236  0.45457999904298946 		Uiso   ? 		Ti 		2.05620
Ti 1.0  		0.6797379467504465 		0.3994503876729807  0.4555651569356523 		Uiso   ? 		Ti 		2.05620
Ti 1.0  		0.6843178722092944 		0.9024438119540682  0.4544392622011805 		Uiso   ? 		Ti 		2.05620
Ti 1.0  		0.24620423553913914 		0.3415448032191579  0.45457999904298946 		Uiso   ? 		Ti 		2.05958
Ti 1.0  		0.24460435075473488 		0.8411031504563746  0.4558466306192702 		Uiso   ? 		Ti 		2.05958
Ti 1.0  		0.7489976502390867 		0.3437530670330749  0.4550022095684164 		Uiso   ? 		Ti 		2.05958
Ti 1.0  		0.7490976868333186 		0.8433114142702915  0.4550022095684164 		Uiso   ? 		Ti 		2.05958
Ti 1.0  		0.24747599516416655 		0.400186475610953  0.4557058937774613 		Uiso   ? 		Ti 		2.06106
Ti 1.0  		0.2469056918959778 		0.8992540975561881  0.45669105167012414 		Uiso   ? 		Ti 		2.06106
Ti 1.0  		0.7490185405527212 		0.40116792619491615  0.4551429464102254 		Uiso   ? 		Ti 		2.06106
Ti 1.0  		0.7500912175951521 		0.9009716360781236  0.4555651569356523 		Uiso   ? 		Ti 		2.06106
Ti 1.0  		0.37545130569559226 		0.1504073019923447  0.48990494633704224 		Uiso   ? 		Ti 		2.06172
Ti 1.0  		0.37832251215295604 		0.6516831877514968  0.4918752621223679 		Uiso   ? 		Ti 		2.06172
Ti 1.0  		0.8803696221188351 		0.15261556580626168  0.4893419989698063 		Uiso   ? 		Ti 		2.06172
Ti 1.0  		0.8743884565061113 		0.6502110118755521  0.4901864200206602 		Uiso   ? 		Ti 		2.06172
Ti 1.0  		0.12439922334915 		0.3439984296790657  0.45457999904298946 		Uiso   ? 		Ti 		2.05991
Ti 1.0  		0.12419695935760372 		0.8438021395622731  0.4550022095684164 		Uiso   ? 		Ti 		2.05991
Ti 1.0  		0.622655808116465 		0.3435077043870841  0.45472073588479844 		Uiso   ? 		Ti 		2.05991
Ti 1.0  		0.6260418053319365 		0.8445382275002454  0.4550022095684164 		Uiso   ? 		Ti 		2.05991
Ti 1.0  		0.30313890841268776 		0.1494258514083816  0.4184106306980829 		Uiso   ? 		Ti 		2.08446
Ti 1.0  		0.3037954027333076 		0.6509470998135245  0.41869210438170085 		Uiso   ? 		Ti 		2.08446
Ti 1.0  		0.8049837543870206 		0.1501619393463539  0.4184106306980829 		Uiso   ? 		Ti 		2.08446
Ti 1.0  		0.8013487782927696 		0.6494749239375798  0.41756620964722907 		Uiso   ? 		Ti 		2.08446
Ti 1.0  		0.1793517043089284 		0.2745608008636765  0.4544392622011805 		Uiso   ? 		Ti 		2.06607
Ti 1.0  		0.17900268883591697 		0.7753459613308471  0.4557058937774613 		Uiso   ? 		Ti 		2.06607
Ti 1.0  		0.6821451190088759 		0.2767690646775935  0.45457999904298946 		Uiso   ? 		Ti 		2.06607
Ti 1.0  		0.6817303648450002 		0.776572774560801  0.45457999904298946 		Uiso   ? 		Ti 		2.06607
Ti 1.0  		0.4140824767892859 		0.23702031602708803  0.4526096832576639 		Uiso   ? 		Ti 		2.06510
Ti 1.0  		0.41585836303956986 		0.7378054764942586  0.4562688411446972 		Uiso   ? 		Ti 		2.06510
Ti 1.0  		0.9147750614885225 		0.23800176661105116  0.45387631483394464 		Uiso   ? 		Ti 		2.06510
Ti 1.0  		0.9114664577026339 		0.7358425753263325  0.4555651569356523 		Uiso   ? 		Ti 		2.06510
Ti 1.0  		0.3557984725520705 		0.11237609186377467  0.4530318937830907 		Uiso   ? 		Ti 		2.06183
Ti 1.0  		0.3569040189399336 		0.6126705270389636  0.4554244200938434 		Uiso   ? 		Ti 		2.06183
Ti 1.0  		0.8599895080448761 		0.11482971832368243  0.45373557799213565 		Uiso   ? 		Ti 		2.06183
Ti 1.0  		0.8549481135349193 		0.6121798017469822  0.45472073588479844 		Uiso   ? 		Ti 		2.06183
Ti 1.0  		0.2885826579961249 		0.17003631367160663  0.45528368325203433 		Uiso   ? 		Ti 		2.06222
Ti 1.0  		0.29042428293727324 		0.6718029247227403  0.4555651569356523 		Uiso   ? 		Ti 		2.06222
Ti 1.0  		0.7913672750732246 		0.17052703896358817  0.4554244200938434 		Uiso   ? 		Ti 		2.06222
Ti 1.0  		0.7857212793917113 		0.6683678476788695  0.45387631483394464 		Uiso   ? 		Ti 		2.06222
Ti 1.0  		0.3780099853863945 		0.15212484051428013  0.10949326292738261 		Uiso   ? 		Ti 		2.08881
Ti 1.0  		0.37625455149767717 		0.6509470998135245  0.11075989450366339 		Uiso   ? 		Ti 		2.08881
Ti 1.0  		0.8769697793615625 		0.15261556580626168  0.11005621029461851 		Uiso   ? 		Ti 		2.08881
Ti 1.0  		0.8765133582294067 		0.6502110118755521  0.11047842082004544 		Uiso   ? 		Ti 		2.08881
Ti 1.0  		0.375532318486193 		0.1484444008244185  0.2636001047082103 		Uiso   ? 		Ti 		2.08890
Ti 1.0  		0.3784363942889889 		0.6502110118755521  0.265148209968109 		Uiso   ? 		Ti 		2.08890
Ti 1.0  		0.8774429031513902 		0.1501619393463539  0.26402231523363723 		Uiso   ? 		Ti 		2.08890
Ti 1.0  		0.8759985674712989 		0.6504563745215428  0.2641630520754462 		Uiso   ? 		Ti 		2.08890
Ti 1.0  		0.3029921569312226 		0.1504073019923447  0.18211347330081376 		Uiso   ? 		Ti 		2.08893
Ti 1.0  		0.30446574259572834 		0.651437825105506  0.18267642066804965 		Uiso   ? 		Ti 		2.08893
Ti 1.0  		0.8047143231466745 		0.15089802728432625  0.18380231540252145 		Uiso   ? 		Ti 		2.08893
Ti 1.0  		0.8034496082934807 		0.6507017371675337  0.1828171575098586 		Uiso   ? 		Ti 		2.08893
Ti 1.0  		0.37793043347876276 		0.22548827166552166  0.11005621029461851 		Uiso   ? 		Ti 		2.08881
Ti 1.0  		0.3759384376951316 		0.7255373441947198  0.11047842082004544 		Uiso   ? 		Ti 		2.08881
Ti 1.0  		0.8765550575227204 		0.22573363431151244  0.11033768397823646 		Uiso   ? 		Ti 		2.08881
Ti 1.0  		0.8764907473897914 		0.7228383550888213  0.11061915766185441 		Uiso   ? 		Ti 		2.08881
Ti 1.0  		0.37594348561408475 		0.22278928255962316  0.26289642049916545 		Uiso   ? 		Ti 		2.08890
Ti 1.0  		0.3770490320019479 		0.7230837177348122  0.26402231523363723 		Uiso   ? 		Ti 		2.08890
Ti 1.0  		0.8764235801409916 		0.22377073314358625  0.2641630520754462 		Uiso   ? 		Ti 		2.08890
Ti 1.0  		0.8767689762529853 		0.7238198056727845  0.2644445257590642 		Uiso   ? 		Ti 		2.08890
Ti 1.0  		0.16041417306404623 		0.2932083619589754  0.11047842082004544 		Uiso   ? 		Ti 		2.08881
Ti 1.0  		0.16209145127803357 		0.7925213465502012  0.11019694713642748 		Uiso   ? 		Ti 		2.08881
Ti 1.0  		0.6604933589688784 		0.2929629993129846  0.11132284187089929 		Uiso   ? 		Ti 		2.08881
Ti 1.0  		0.6624159967006275 		0.792766709196192  0.10991547345280954 		Uiso   ? 		Ti 		2.08881
Ti 1.0  		0.37691612606228375 		0.22303464520561392  0.18211347330081376 		Uiso   ? 		Ti 		2.08893
Ti 1.0  		0.37629767934892633 		0.7245558936107567  0.18267642066804965 		Uiso   ? 		Ti 		2.08893
Ti 1.0  		0.8772165997622933 		0.22450682108155856  0.18323936803528554 		Uiso   ? 		Ti 		2.08893
Ti 1.0  		0.8777175449785999 		0.7252919815487291  0.1833801048770945 		Uiso   ? 		Ti 		2.08893
Ti 1.0  		0.16010307485542014 		0.29173618608303076  0.265148209968109 		Uiso   ? 		Ti 		2.08890
Ti 1.0  		0.16126556231129976 		0.7912945333202475  0.26430378891725514 		Uiso   ? 		Ti 		2.08890
Ti 1.0  		0.6614900711396617 		0.2919815487290215  0.2647259994426821 		Uiso   ? 		Ti 		2.08890
Ti 1.0  		0.6616887157701903 		0.7930120718421828  0.2637408415500193 		Uiso   ? 		Ti 		2.08890
Ti 1.0  		0.30304909799923907 		0.14967121405437236  0.33664252560706837 		Uiso   ? 		Ti 		2.08876
Ti 1.0  		0.3045226836637448 		0.6507017371675337  0.3376276834997312 		Uiso   ? 		Ti 		2.08876
Ti 1.0  		0.8039213035253729 		0.1501619393463539  0.33734620981611324 		Uiso   ? 		Ti 		2.08876
Ti 1.0  		0.8031713794302867 		0.6497202865835706  0.3367832624488773 		Uiso   ? 		Ti 		2.08876
Ti 1.0  		0.1596642812939937 		0.3660810678182354  0.11019694713642748 		Uiso   ? 		Ti 		2.08881
Ti 1.0  		0.16064714792297596 		0.8661301403474335  0.11019694713642748 		Uiso   ? 		Ti 		2.08881
Ti 1.0  		0.6614193168548779 		0.3670625184021985  0.11090063134547236 		Uiso   ? 		Ti 		2.08881
Ti 1.0  		0.6607504055503924 		0.8646579644714889  0.11005621029461851 		Uiso   ? 		Ti 		2.08881
Ti 1.0  		0.16120865356831693 		0.3653449798802631  0.2648667362844911 		Uiso   ? 		Ti 		2.08890
Ti 1.0  		0.1597795919879621 		0.8626950633035627  0.26345936786640134 		Uiso   ? 		Ti 		2.08890
Ti 1.0  		0.6608957284739222 		0.36559034252625383  0.26430378891725514 		Uiso   ? 		Ti 		2.08890
Ti 1.0  		0.6608818829321211 		0.8666208656394151  0.2650074731263001 		Uiso   ? 		Ti 		2.08890
Ti 1.0  		0.2338233514369996 		0.3660810678182354  0.11118210502909032 		Uiso   ? 		Ti 		2.08881
Ti 1.0  		0.2351501856200401 		0.8680930415153597  0.10935252608557364 		Uiso   ? 		Ti 		2.08881
Ti 1.0  		0.7334446876517405 		0.3653449798802631  0.11118210502909032 		Uiso   ? 		Ti 		2.08881
Ti 1.0  		0.7345831033850359 		0.8661301403474335  0.1089303155601467 		Uiso   ? 		Ti 		2.08881
Ti 1.0  		0.2338145538141517 		0.3643635292963  0.2641630520754462 		Uiso   ? 		Ti 		2.08890
Ti 1.0  		0.2341270805807132 		0.8639218765335166  0.26345936786640134 		Uiso   ? 		Ti 		2.08890
Ti 1.0  		0.7349649882034794 		0.3658357051722446  0.2645852626008731 		Uiso   ? 		Ti 		2.08890
Ti 1.0  		0.7363816327999686 		0.8676023162233782  0.26388157839182824 		Uiso   ? 		Ti 		2.08890
Ti 1.0  		0.3767277076125385 		0.22180783197566006  0.33636105192345045 		Uiso   ? 		Ti 		2.08876
Ti 1.0  		0.37646850255297576 		0.7223476297968398  0.33776842034154014 		Uiso   ? 		Ti 		2.08876
Ti 1.0  		0.8772165997622933 		0.22450682108155856  0.3376276834997312 		Uiso   ? 		Ti 		2.08876
Ti 1.0  		0.8772837670110931 		0.7235744430267936  0.33664252560706837 		Uiso   ? 		Ti 		2.08876
Ti 1.0  		0.1620242840292338 		0.29345372460496616  0.18323936803528554 		Uiso   ? 		Ti 		2.08893
Ti 1.0  		0.162582170313557 		0.7935027971341644  0.1828171575098586 		Uiso   ? 		Ti 		2.08893
Ti 1.0  		0.6614659994170773 		0.2932083619589754  0.1835208417189035 		Uiso   ? 		Ti 		2.08893
Ti 1.0  		0.6606503366311269 		0.7917852586122289  0.18267642066804965 		Uiso   ? 		Ti 		2.08893
Ti 1.0  		0.16162337540715904 		0.29222691137501233  0.3367832624488773 		Uiso   ? 		Ti 		2.08875
Ti 1.0  		0.159736464136713 		0.7890862695063304  0.33720547297430425 		Uiso   ? 		Ti 		2.08875
Ti 1.0  		0.6603049405191331 		0.29173618608303076  0.3367832624488773 		Uiso   ? 		Ti 		2.08875
Ti 1.0  		0.66333169608081 		0.7937481597801551  0.33636105192345045 		Uiso   ? 		Ti 		2.08875
Ti 1.0  		0.16084941191452223 		0.3663264304642262  0.18309863119347655 		Uiso   ? 		Ti 		2.08893
Ti 1.0  		0.16141609582169325 		0.8680930415153597  0.18267642066804965 		Uiso   ? 		Ti 		2.08893
Ti 1.0  		0.6625715781299741 		0.3668171557562077  0.18380231540252145 		Uiso   ? 		Ti 		2.08893
Ti 1.0  		0.6607263338278082 		0.8658847777014428  0.18253568382624066 		Uiso   ? 		Ti 		2.08893
Ti 1.0  		0.16002352294778838 		0.36509961723427226  0.33720547297430425 		Uiso   ? 		Ti 		2.08875
Ti 1.0  		0.1596985791973613 		0.8646579644714889  0.33664252560706837 		Uiso   ? 		Ti 		2.08875
Ti 1.0  		0.6606503689561605 		0.36509961723427226  0.3370647361324953 		Uiso   ? 		Ti 		2.08875
Ti 1.0  		0.6614864841036776 		0.8661301403474335  0.3367832624488773 		Uiso   ? 		Ti 		2.08875
Ti 1.0  		0.23598112250572711 		0.3665717931102169  0.1829578943516676 		Uiso   ? 		Ti 		2.08893
Ti 1.0  		0.2353626757923696 		0.8680930415153597  0.18211347330081376 		Uiso   ? 		Ti 		2.08893
Ti 1.0  		0.734908047135463 		0.3665717931102169  0.18366157856071247 		Uiso   ? 		Ti 		2.08893
Ti 1.0  		0.7341581230403768 		0.8661301403474335  0.1828171575098586 		Uiso   ? 		Ti 		2.08893
Ti 1.0  		0.2350654231255446 		0.36559034252625383  0.33720547297430425 		Uiso   ? 		Ti 		2.08876
Ti 1.0  		0.23483028978856615 		0.8649033271174796  0.3370647361324953 		Uiso   ? 		Ti 		2.08876
Ti 1.0  		0.7333789489608762 		0.3643635292963  0.33720547297430425 		Uiso   ? 		Ti 		2.08876
Ti 1.0  		0.7366839333857469 		0.8673569535773875  0.33664252560706837 		Uiso   ? 		Ti 		2.08876
Ti 1.0  		0.28850482661447396 		0.11335754244773777  0.14608484179771614 		Uiso   ? 		Ti 		2.07817
Ti 1.0  		0.2874854712790418 		0.6136519776229267  0.14594410495590715 		Uiso   ? 		Ti 		2.07817
Ti 1.0  		0.7884942021058574 		0.11335754244773777  0.14763294705761484 		Uiso   ? 		Ti 		2.07817
Ti 1.0  		0.787172546184647 		0.6138973402689174  0.14664778916495202 		Uiso   ? 		Ti 		2.07817
Ti 1.0  		0.2867961076129898 		0.11164000392580235  0.29991020989492584 		Uiso   ? 		Ti 		2.07818
Ti 1.0  		0.2883025626229277 		0.6131612523309452  0.30188052568025153 		Uiso   ? 		Ti 		2.07818
Ti 1.0  		0.7877011824845558 		0.11262145450976545  0.3014583151548246 		Uiso   ? 		Ti 		2.07818
Ti 1.0  		0.7873521670115444 		0.6134066149769359  0.30173978883844255 		Uiso   ? 		Ti 		2.07818
Ti 1.0  		0.41411620639770846 		0.1724899401315144  0.1462255786395251 		Uiso   ? 		Ti 		2.07817
Ti 1.0  		0.4131625897531407 		0.6737658258906665  0.1473514733739969 		Uiso   ? 		Ti 		2.07817
Ti 1.0  		0.9135338500629677 		0.17347139071547749  0.14636631548133408 		Uiso   ? 		Ti 		2.07817
Ti 1.0  		0.913119095899092 		0.673275100598685  0.14805515758304177 		Uiso   ? 		Ti 		2.07817
Ti 1.0  		0.412063519842166 		0.16880950044165277  0.2997694730531169 		Uiso   ? 		Ti 		2.07818
Ti 1.0  		0.41573654354367934 		0.6725390126607126  0.30131757831301564 		Uiso   ? 		Ti 		2.07818
Ti 1.0  		0.9143180720614213 		0.1724899401315144  0.2996287362113079 		Uiso   ? 		Ti 		2.07818
Ti 1.0  		0.9135922196889197 		0.6708214741387771  0.29991020989492584 		Uiso   ? 		Ti 		2.07818
Ti 1.0  		0.35496206543650805 		0.2394739424869958  0.14608484179771614 		Uiso   ? 		Ti 		2.07817
Ti 1.0  		0.35348486041098465 		0.7392776523702032  0.14664778916495202 		Uiso   ? 		Ti 		2.07817
Ti 1.0  		0.8558671403080741 		0.2404553930709589  0.14636631548133408 		Uiso   ? 		Ti 		2.07817
Ti 1.0  		0.8564578959378295 		0.7409951908921386  0.14692926284856997 		Uiso   ? 		Ti 		2.07817
Ti 1.0  		0.3548634574002115 		0.23800176661105116  0.2997694730531169 		Uiso   ? 		Ti 		2.07818
Ti 1.0  		0.3551847817896209 		0.7392776523702032  0.30103610462939767 		Uiso   ? 		Ti 		2.07818
Ti 1.0  		0.8558014016172096 		0.2394739424869958  0.30159905199663356 		Uiso   ? 		Ti 		2.07818
Ti 1.0  		0.8567273271781755 		0.7402591029541663  0.3004731572621617 		Uiso   ? 		Ti 		2.07818
Ti 1.0  		0.377094286006212 		0.151143389930317  0.18267642066804965 		Uiso   ? 		Ti 		2.08893
Ti 1.0  		0.3767452705332006 		0.6519285503974875  0.18380231540252145 		Uiso   ? 		Ti 		2.08893
Ti 1.0  		0.8760781517039643 		0.1504073019923447  0.1823949469844317 		Uiso   ? 		Ti 		2.08893
Ti 1.0  		0.8773480448189883 		0.6531553636274414  0.1829578943516676 		Uiso   ? 		Ti 		2.08893
Ti 1.0  		0.12415472409437862 		0.27848660319952895  0.14706999969037893 		Uiso   ? 		Ti 		2.07817
Ti 1.0  		0.12482649251473477 		0.7770634998527824  0.14636631548133408 		Uiso   ? 		Ti 		2.07817
Ti 1.0  		0.6235307007913579 		0.277259789969575  0.14805515758304177 		Uiso   ? 		Ti 		2.07817
Ti 1.0  		0.624088587075681 		0.7773088624987733  0.1462255786395251 		Uiso   ? 		Ti 		2.07817
Ti 1.0  		0.3038749869659729 		0.15089802728432625  0.10907105240195568 		Uiso   ? 		Ti 		2.08880
Ti 1.0  		0.3029125726985572 		0.6504563745215428  0.10991547345280954 		Uiso   ? 		Ti 		2.08880
Ti 1.0  		0.8014941012162994 		0.1504073019923447  0.11104136818728133 		Uiso   ? 		Ti 		2.08880
Ti 1.0  		0.8021417979140713 		0.6502110118755521  0.11019694713642748 		Uiso   ? 		Ti 		2.08880
Ti 1.0  		0.12344271726367777 		0.27578761409363045  0.30061389410397077 		Uiso   ? 		Ti 		2.07818
Ti 1.0  		0.12335433540816443 		0.7741191481008931  0.2997694730531169 		Uiso   ? 		Ti 		2.07818
Ti 1.0  		0.6235788442365264 		0.27480616350966736  0.3000509467367349 		Uiso   ? 		Ti 		2.07818
Ti 1.0  		0.6247829986606861 		0.776572774560801  0.3004731572621617 		Uiso   ? 		Ti 		2.07818
Ti 1.0  		0.18091842777985517 		0.40264010207086076  0.14608484179771614 		Uiso   ? 		Ti 		2.07817
Ti 1.0  		0.1824577521352252 		0.9046520757679851  0.14650705232314304 		Uiso   ? 		Ti 		2.07817
Ti 1.0  		0.6822813523415124 		0.40411227794680543  0.14721073653218794 		Uiso   ? 		Ti 		2.07817
Ti 1.0  		0.6815554999690105 		0.9024438119540682  0.14706999969037893 		Uiso   ? 		Ti 		2.07817
Ti 1.0  		0.1832886890209122 		0.40313082736284234  0.30075463094577976 		Uiso   ? 		Ti 		2.07818
Ti 1.0  		0.18056061468399587 		0.9017077240160958  0.3000509467367349 		Uiso   ? 		Ti 		2.07818
Ti 1.0  		0.6819045154420219 		0.40165865148689767  0.30061389410397077 		Uiso   ? 		Ti 		2.07818
Ti 1.0  		0.6827975716575556 		0.9019530866620866  0.30173978883844255 		Uiso   ? 		Ti 		2.07818
Ti 1.0  		0.376618841070425 		0.14721758759446463  0.33664252560706837 		Uiso   ? 		Ti 		2.08876
Ti 1.0  		0.3787715642201993 		0.6504563745215428  0.3380498940251581 		Uiso   ? 		Ti 		2.08876
Ti 1.0  		0.8763804522897426 		0.1501619393463539  0.3367832624488773 		Uiso   ? 		Ti 		2.08876
Ti 1.0  		0.8762920704342292 		0.6484934733536166  0.3367832624488773 		Uiso   ? 		Ti 		2.08876
Ti 1.0  		0.2503818238179768 		0.34522524290901957  0.1458033681140982 		Uiso   ? 		Ti 		2.07817
Ti 1.0  		0.24985318751806818 		0.8465011286681716  0.14566263127228918 		Uiso   ? 		Ti 		2.07817
Ti 1.0  		0.7517688201022185 		0.3454706055550103  0.14692926284856997 		Uiso   ? 		Ti 		2.07817
Ti 1.0  		0.7508392751802349 		0.8455196780842086  0.14650705232314304 		Uiso   ? 		Ti 		2.07817
Ti 1.0  		0.24982536609158904 		0.3432623417410934  0.3008953677875887 		Uiso   ? 		Ti 		2.07819
Ti 1.0  		0.2486175923064116 		0.8423299636863284  0.29934726252768995 		Uiso   ? 		Ti 		2.07819
Ti 1.0  		0.7498804802738368 		0.3442437923250565  0.30117684147120666 		Uiso   ? 		Ti 		2.07819
Ti 1.0  		0.7521470855596443 		0.84601040337619  0.3003324204203528 		Uiso   ? 		Ti 		2.07819
Ti 1.0  		0.30231301944595396 		0.14819903817842772  0.2637408415500193 		Uiso   ? 		Ti 		2.08890
Ti 1.0  		0.3055522651799602 		0.6502110118755521  0.26402231523363723 		Uiso   ? 		Ti 		2.08890
Ti 1.0  		0.8032509636629521 		0.14967121405437236  0.2644445257590642 		Uiso   ? 		Ti 		2.08890
Ti 1.0  		0.8024112291544174 		0.6494749239375798  0.2644445257590642 		Uiso   ? 		Ti 		2.08890
Ti 1.0  		0.24875973382099162 		0.4019040141328884  0.14706999969037893 		Uiso   ? 		Ti 		2.07934
Ti 1.0  		0.24912272517868117 		0.9053881637059574  0.1458033681140982 		Uiso   ? 		Ti 		2.07934
Ti 1.0  		0.7494523185202281 		0.4028854647168515  0.14692926284856997 		Uiso   ? 		Ti 		2.07934
Ti 1.0  		0.7489806232883358 		0.9034252625380312  0.1462255786395251 		Uiso   ? 		Ti 		2.07934
Ti 1.0  		0.24964256385574193 		0.40239473942487  0.3001916835785438 		Uiso   ? 		Ti 		2.07935
Ti 1.0  		0.2488597704152236 		0.901462361370105  0.3000509467367349 		Uiso   ? 		Ti 		2.07935
Ti 1.0  		0.7495662006562611 		0.4014132888409069  0.30131757831301564 		Uiso   ? 		Ti 		2.07935
Ti 1.0  		0.7519883550463815 		0.9039159878300129  0.3003324204203528 		Uiso   ? 		Ti 		2.07935
Ti 1.0  		0.1234353805237989 		0.3454706055550103  0.14706999969037893 		Uiso   ? 		Ti 		2.07934
Ti 1.0  		0.12405020787613863 		0.8447835901462363  0.14636631548133408 		Uiso   ? 		Ti 		2.07934
Ti 1.0  		0.623906677427858 		0.344734517617038  0.14721073653218794 		Uiso   ? 		Ti 		2.07934
Ti 1.0  		0.6232136944007883 		0.8435567769162824  0.14692926284856997 		Uiso   ? 		Ti 		2.07934
Ti 1.0  		0.12303447190172412 		0.3442437923250565  0.3008953677875887 		Uiso   ? 		Ti 		2.07935
Ti 1.0  		0.12224288083835794 		0.8415938757483562  0.2996287362113079 		Uiso   ? 		Ti 		2.07935
Ti 1.0  		0.6236853896326806 		0.3430169790951026  0.3008953677875887 		Uiso   ? 		Ti 		2.07935
Ti 1.0  		0.6242761452624359 		0.8435567769162824  0.30131757831301564 		Uiso   ? 		Ti 		2.07935
Ti 1.0  		0.18213167179490808 		0.2779958779075474  0.14664778916495202 		Uiso   ? 		Ti 		2.07934
Ti 1.0  		0.18323721818277125 		0.7782903130827364  0.14650705232314304 		Uiso   ? 		Ti 		2.07934
Ti 1.0  		0.6820881779408594 		0.27750515261556585  0.14749221021580589 		Uiso   ? 		Ti 		2.07934
Ti 1.0  		0.6830381752244095 		0.7770634998527824  0.14636631548133408 		Uiso   ? 		Ti 		2.07934
Ti 1.0  		0.18150947537765585 		0.2750515261556581  0.30117684147120666 		Uiso   ? 		Ti 		2.07935
Ti 1.0  		0.18192061018051392 		0.7760820492688193  0.30075463094577976 		Uiso   ? 		Ti 		2.07935
Ti 1.0  		0.6823247398357732 		0.2762783393856119  0.30075463094577976 		Uiso   ? 		Ti 		2.07935
Ti 1.0  		0.6836187046733816 		0.7777995877907548  0.30075463094577976 		Uiso   ? 		Ti 		2.07935
Ti 1.0  		0.41336399348169656 		0.23898321719501425  0.14636631548133408 		Uiso   ? 		Ti 		2.07934
Ti 1.0  		0.4126557363548905 		0.7407498282461479  0.14678852600676098 		Uiso   ? 		Ti 		2.07934
Ti 1.0  		0.9146371076299051 		0.24070075571694965  0.14706999969037893 		Uiso   ? 		Ti 		2.07934
Ti 1.0  		0.914312163879478 		0.7402591029541663  0.14664778916495202 		Uiso   ? 		Ti 		2.07934
Ti 1.0  		0.4124723658240983 		0.23677495338109728  0.3003324204203528 		Uiso   ? 		Ti 		2.07935
Ti 1.0  		0.4135626381122251 		0.7400137403081756  0.30131757831301564 		Uiso   ? 		Ti 		2.07935
Ti 1.0  		0.9136885389042905 		0.239228579841005  0.3008953677875887 		Uiso   ? 		Ti 		2.07935
Ti 1.0  		0.9141237454297328 		0.7390322897242124  0.29991020989492584 		Uiso   ? 		Ti 		2.07935
Ti 1.0  		0.3561424401061288 		0.11433899303170086  0.14608484179771614 		Uiso   ? 		Ti 		2.07934
Ti 1.0  		0.3551471564932809 		0.6134066149769359  0.14706999969037893 		Uiso   ? 		Ti 		2.07934
Ti 1.0  		0.8551591751493133 		0.11409363038571009  0.14608484179771614 		Uiso   ? 		Ti 		2.07934
Ti 1.0  		0.8558726105379495 		0.6148787908528806  0.14749221021580589 		Uiso   ? 		Ti 		2.07934
Ti 1.0  		0.35347635475618205 		0.10943174011188538  0.2996287362113079 		Uiso   ? 		Ti 		2.07935
Ti 1.0  		0.35739473797545707 		0.6136519776229267  0.3020212625220605 		Uiso   ? 		Ti 		2.07935
Ti 1.0  		0.856916037595966 		0.11335754244773777  0.2997694730531169 		Uiso   ? 		Ti 		2.07935
Ti 1.0  		0.8549809828803514 		0.6126705270389636  0.30061389410397077 		Uiso   ? 		Ti 		2.07935
Ti 1.0  		0.28908217465449626 		0.17273530277750515  0.1462255786395251 		Uiso   ? 		Ti 		2.07934
Ti 1.0  		0.28802994997363196 		0.6725390126607126  0.14664778916495202 		Uiso   ? 		Ti 		2.07934
Ti 1.0  		0.7888261906281181 		0.1722445774855236  0.1479144207412328 		Uiso   ? 		Ti 		2.07934
Ti 1.0  		0.7870795543622486 		0.6727843753067033  0.14749221021580589 		Uiso   ? 		Ti 		2.07934
Ti 1.0  		0.2877086255842225 		0.1712631269015605  0.2997694730531169 		Uiso   ? 		Ti 		2.07935
Ti 1.0  		0.28768598241957366 		0.6705761114927864  0.3003324204203528 		Uiso   ? 		Ti 		2.07935
Ti 1.0  		0.7879433605933678 		0.17175385219354206  0.30103610462939767 		Uiso   ? 		Ti 		2.07935
Ti 1.0  		0.7887466063954527 		0.6722936500147219  0.30075463094577976 		Uiso   ? 		Ti 		2.07935
Ti 1.0  		0.30369536613907555 		0.1513887525763078  0.028710315729030912 		Uiso   ? 		Ti 		2.08794
Ti 1.0  		0.3032148732843354 		0.6502110118755521  0.02941399993807579 		Uiso   ? 		Ti 		2.08794
Ti 1.0  		0.8043550814928798 		0.15187947786828934  0.030117684147120665 		Uiso   ? 		Ti 		2.08794
Ti 1.0  		0.8025667782587302 		0.6502110118755521  0.029695473621693738 		Uiso   ? 		Ti 		2.08794
Ti 1.0  		0.373597296095612 		0.22107174403768773  -0.043487684118973295 		Uiso   ? 		Ti 		2.06631
Ti 1.0  		0.37538845644563235 		0.718912552752969  -0.04306547359354637 		Uiso   ? 		Ti 		2.06631
Ti 1.0  		0.8752296518976153 		0.22180783197566006  -0.0423617893845015 		Uiso   ? 		Ti 		2.06631
Ti 1.0  		0.8729418320050943 		0.7174403768770243  -0.043206210435355344 		Uiso   ? 		Ti 		2.06631
Ti 1.0  		0.16362791851753283 		0.29836097752478163  -0.04264326306811945 		Uiso   ? 		Ti 		2.06632
Ti 1.0  		0.1610882626303618 		0.7981646874079891  -0.043206210435355344 		Uiso   ? 		Ti 		2.06632
Ti 1.0  		0.6684476269044791 		0.299097065462754  -0.043769157802591246 		Uiso   ? 		Ti 		2.06632
Ti 1.0  		0.6640853698797909 		0.7986554126999706  -0.04433210516982715 		Uiso   ? 		Ti 		2.06632
Ti 1.0  		0.16259747673832708 		0.36387280400431843  -0.04292473675173739 		Uiso   ? 		Ti 		2.06624
Ti 1.0  		0.16498676178301525 		0.8658847777014428  -0.0440506314862092 		Uiso   ? 		Ti 		2.06624
Ti 1.0  		0.6672375642983759 		0.36509961723427226  -0.043487684118973295 		Uiso   ? 		Ti 		2.06624
Ti 1.0  		0.6648863268609501 		0.8661301403474335  -0.043487684118973295 		Uiso   ? 		Ti 		2.06624
Ti 1.0  		0.23126467174619736 		0.3643635292963  -0.043206210435355344 		Uiso   ? 		Ti 		2.06623
Ti 1.0  		0.2313735059632772 		0.865639415055452  -0.04292473675173739 		Uiso   ? 		Ti 		2.06623
Ti 1.0  		0.7354797789615871 		0.36559034252625383  -0.04165810517545662 		Uiso   ? 		Ti 		2.06623
Ti 1.0  		0.7320332213170815 		0.8661301403474335  -0.0440506314862092 		Uiso   ? 		Ti 		2.06623
Ti 1.0  		0.16163217303000693 		0.2939444498969477  0.029695473621693738 		Uiso   ? 		Ti 		2.08794
Ti 1.0  		0.16127435993414768 		0.7930120718421828  0.02856957888722194 		Uiso   ? 		Ti 		2.08794
Ti 1.0  		0.6622918883838111 		0.29443517518892925  0.02941399993807579 		Uiso   ? 		Ti 		2.08794
Ti 1.0  		0.6597675065963766 		0.7912945333202475  0.02772515783636809 		Uiso   ? 		Ti 		2.08794
Ti 1.0  		0.1609720916734031 		0.3665717931102169  0.029273263096266815 		Uiso   ? 		Ti 		2.08794
Ti 1.0  		0.1605573375095274 		0.8663755029934244  0.02800663151998604 		Uiso   ? 		Ti 		2.08794
Ti 1.0  		0.6630863688880819 		0.3665717931102169  0.029695473621693738 		Uiso   ? 		Ti 		2.08794
Ti 1.0  		0.660693464482376 		0.8653940524094613  0.02856957888722194 		Uiso   ? 		Ti 		2.08794
Ti 1.0  		0.2356788219199489 		0.3668171557562077  0.029273263096266815 		Uiso   ? 		Ti 		2.08794
Ti 1.0  		0.2334085972731238 		0.8658847777014428  0.02800663151998604 		Uiso   ? 		Ti 		2.08794
Ti 1.0  		0.7360603084105592 		0.3663264304642262  0.029695473621693738 		Uiso   ? 		Ti 		2.08794
Ti 1.0  		0.7350321554522792 		0.8649033271174796  0.028991789412648863 		Uiso   ? 		Ti 		2.08794
Ti 1.0  		0.2856285722381571 		0.11482971832368243  -0.007881263141302604 		Uiso   ? 		Ti 		2.07129
Ti 1.0  		0.2856716677643726 		0.6151241534988714  -0.007177578932257728 		Uiso   ? 		Ti 		2.07129
Ti 1.0  		0.7898196077309625 		0.11728334478359015  -0.006755368406830804 		Uiso   ? 		Ti 		2.07129
Ti 1.0  		0.7896895589071693 		0.6134066149769359  -0.005910947355976953 		Uiso   ? 		Ti 		2.07129
Ti 1.0  		0.3767919854204338 		0.1513887525763078  0.02856957888722194 		Uiso   ? 		Ti 		2.08794
Ti 1.0  		0.3746685122550739 		0.6494749239375798  0.029273263096266815 		Uiso   ? 		Ti 		2.08794
Ti 1.0  		0.8761110210493964 		0.15089802728432625  0.02941399993807579 		Uiso   ? 		Ti 		2.08794
Ti 1.0  		0.8771836980918275 		0.6507017371675337  0.028851052570839888 		Uiso   ? 		Ti 		2.08794
Ti 1.0  		0.41123115439854374 		0.1722445774855236  -0.00830347366672953 		Uiso   ? 		Ti 		2.07130
Ti 1.0  		0.409254432714649 		0.6693492982628326  -0.00830347366672953 		Uiso   ? 		Ti 		2.07130
Ti 1.0  		0.9135907911309842 		0.17273530277750515  -0.007177578932257728 		Uiso   ? 		Ti 		2.07130
Ti 1.0  		0.9139033178975458 		0.6722936500147219  -0.006755368406830804 		Uiso   ? 		Ti 		2.07130
Ti 1.0  		0.30614016369384484 		0.15457846697418787  -0.04306547359354637 		Uiso   ? 		Ti 		2.06626
Ti 1.0  		0.30615038987462817 		0.6543821768573952  -0.04250252622631047 		Uiso   ? 		Ti 		2.06626
Ti 1.0  		0.8071350489788596 		0.15531455491216017  -0.0423617893845015 		Uiso   ? 		Ti 		2.06626
Ti 1.0  		0.8077892221535199 		0.6504563745215428  -0.04193957885907457 		Uiso   ? 		Ti 		2.06626
Ti 1.0  		0.35621293474790094 		0.24070075571694965  -0.007318315774066704 		Uiso   ? 		Ti 		2.07130
Ti 1.0  		0.35636111478730154 		0.7378054764942586  -0.0068961052486397785 		Uiso   ? 		Ti 		2.07130
Ti 1.0  		0.8560467611349714 		0.23996466777897735  -0.007177578932257728 		Uiso   ? 		Ti 		2.07130
Ti 1.0  		0.8530645296574455 		0.7363333006183139  -0.006614631565021828 		Uiso   ? 		Ti 		2.07130
Ti 1.0  		0.12531578299232285 		0.27995877907547356  -0.006192421039594903 		Uiso   ? 		Ti 		2.07130
Ti 1.0  		0.12444317913835584 		0.7792717636666995  -0.006473894723212853 		Uiso   ? 		Ti 		2.07130
Ti 1.0  		0.6270860926529433 		0.2779958779075474  -0.008725684192156455 		Uiso   ? 		Ti 		2.07130
Ti 1.0  		0.6258301754225974 		0.7795171263126902  -0.00914789471758338 		Uiso   ? 		Ti 		2.07130
Ti 1.0  		0.18154710067399585 		0.4009225635489253  -0.007599789457684654 		Uiso   ? 		Ti 		2.07129
Ti 1.0  		0.18315216372023035 		0.9039159878300129  -0.008444210508538504 		Uiso   ? 		Ti 		2.07129
Ti 1.0  		0.6842419073376468 		0.40165865148689767  -0.006755368406830804 		Uiso   ? 		Ti 		2.07129
Ti 1.0  		0.6827734999349713 		0.9031798998920405  -0.007740526299493629 		Uiso   ? 		Ti 		2.07129
Ti 1.0  		0.25111790237126197 		0.34669741878496424  -0.007881263141302604 		Uiso   ? 		Ti 		2.07129
Ti 1.0  		0.24820140958460046 		0.8440475022082639  -0.007881263141302604 		Uiso   ? 		Ti 		2.07129
Ti 1.0  		0.7508290489994516 		0.3457159682010011  -0.005910947355976953 		Uiso   ? 		Ti 		2.07129
Ti 1.0  		0.7498337653866036 		0.8447835901462363  -0.007318315774066704 		Uiso   ? 		Ti 		2.07129
Ti 1.0  		0.24836762282176475 		0.40239473942487  -0.007881263141302604 		Uiso   ? 		Ti 		2.07288
Ti 1.0  		0.250323129898946 		0.9026891746000589  -0.007881263141302604 		Uiso   ? 		Ti 		2.07288
Ti 1.0  		0.750694390208773 		0.40239473942487  -0.005910947355976953 		Uiso   ? 		Ti 		2.07288
Ti 1.0  		0.7505819366306755 		0.9019530866620866  -0.0074590526158756785 		Uiso   ? 		Ti 		2.07288
Ti 1.0  		0.12327983141948587 		0.344734517617038  -0.006473894723212853 		Uiso   ? 		Ti 		2.07288
Ti 1.0  		0.12536681587839588 		0.8469918539601532  -0.00858494735034748 		Uiso   ? 		Ti 		2.07288
Ti 1.0  		0.6258519583242559 		0.34522524290901957  -0.007318315774066704 		Uiso   ? 		Ti 		2.07288
Ti 1.0  		0.625290452678915 		0.84601040337619  -0.007740526299493629 		Uiso   ? 		Ti 		2.07288
Ti 1.0  		0.18338254110630092 		0.2792226911375012  -0.007318315774066704 		Uiso   ? 		Ti 		2.07288
Ti 1.0  		0.18055585873308813 		0.7763274119148101  -0.00858494735034748 		Uiso   ? 		Ti 		2.07288
Ti 1.0  		0.6839107790783764 		0.2777505152615566  -0.007881263141302604 		Uiso   ? 		Ti 		2.07288
Ti 1.0  		0.6826548618480305 		0.7792717636666995  -0.008866421033965429 		Uiso   ? 		Ti 		2.07288
Ti 1.0  		0.4131274315867827 		0.2402100304249681  -0.008162736824920554 		Uiso   ? 		Ti 		2.07289
Ti 1.0  		0.41276082086807553 		0.7375601138482677  -0.006755368406830804 		Uiso   ? 		Ti 		2.07289
Ti 1.0  		0.9130510683873019 		0.239228579841005  -0.007036842090448754 		Uiso   ? 		Ti 		2.07289
Ti 1.0  		0.9121543928107505 		0.7397683776621848  -0.007599789457684654 		Uiso   ? 		Ti 		2.07289
Ti 1.0  		0.35295508752118576 		0.11433899303170086  -0.0074590526158756785 		Uiso   ? 		Ti 		2.07288
Ti 1.0  		0.3515019542182467 		0.6129158896849545  -0.006192421039594903 		Uiso   ? 		Ti 		2.07288
Ti 1.0  		0.8572600051500243 		0.11532044361566396  -0.007599789457684654 		Uiso   ? 		Ti 		2.07288
Ti 1.0  		0.8569350613995972 		0.6148787908528806  -0.007318315774066704 		Uiso   ? 		Ti 		2.07288
Ti 1.0  		0.37703880582116456 		0.2232800078516047  0.029273263096266815 		Uiso   ? 		Ti 		2.08794
Ti 1.0  		0.3760523198311646 		0.7240651683187752  0.029273263096266815 		Uiso   ? 		Ti 		2.08794
Ti 1.0  		0.8779198089701462 		0.22548827166552166  0.02941399993807579 		Uiso   ? 		Ti 		2.08794
Ti 1.0  		0.8766462964941044 		0.7235744430267936  0.029695473621693738 		Uiso   ? 		Ti 		2.08794
Ti 1.0  		0.37172509062995723 		0.15187947786828934  -0.04419136832801817 		Uiso   ? 		Ti 		2.06627
Ti 1.0  		0.37030482667245035 		0.6509470998135245  -0.043769157802591246 		Uiso   ? 		Ti 		2.06627
Ti 1.0  		0.8751888451923254 		0.15457846697418787  -0.04278399990992842 		Uiso   ? 		Ti 		2.06627
Ti 1.0  		0.8755911823723357 		0.6538914515654137  -0.04250252622631047 		Uiso   ? 		Ti 		2.06627
Ti 1.0  		0.2874720636893087 		0.1724899401315144  -0.006755368406830804 		Uiso   ? 		Ti 		2.07288
Ti 1.0  		0.28811976038708065 		0.6722936500147219  -0.006755368406830804 		Uiso   ? 		Ti 		2.07288
Ti 1.0  		0.7884669489743233 		0.1732260280694867  -0.006614631565021828 		Uiso   ? 		Ti 		2.07288
Ti 1.0  		0.7873313903568989 		0.6686132103248602  -0.007318315774066704 		Uiso   ? 		Ti 		2.07288
C 1.0  		0.16989352982732722 		-0.0014721758759446463  0.5218522094276796 		Uiso   ? 		C 		0.50102
C 1.0  		0.019771357571473525 		0.04931789184414565  0.7577271562995218 		Uiso   ? 		C 		0.50102
C 1.0  		0.324641336182249 		0.32927667091961926  0.5373332620266669 		Uiso   ? 		C 		0.50102
C 1.0  		0.15261275978479852 		0.3702522328000785  0.7257798932088845 		Uiso   ? 		C 		0.50102
C 1.0  		0.510956212469893 		0.6713121994307588  0.5295927357271731 		Uiso   ? 		C 		0.50102
C 1.0  		0.3442463668575692 		0.7076258710373933  0.7512532615763089 		Uiso   ? 		C 		0.50102
C 1.0  		0.6546558280787375 		-0.005152615565806262  0.5483107356877669 		Uiso   ? 		C 		0.50102
C 1.0  		0.49495400282235913 		0.04220237511041319  0.7338018931919961 		Uiso   ? 		C 		0.50102
C 1.0  		0.8434701218432077 		0.33295711060948086  0.5243854725802412 		Uiso   ? 		C 		0.50102
C 1.0  		0.6801318919346431 		0.38153891451565414  0.7532235773616346 		Uiso   ? 		C 		0.50102
C 1.0  		-0.016514776234783035 		0.6575718912552754  0.5498588409476656 		Uiso   ? 		C 		0.50102
C 1.0  		0.834551004835243 		0.7073805083914025  0.7326759984575243 		Uiso   ? 		C 		0.50102
C 1.0  		0.5065946530402844 		0.027235253704975957  0.5691397882754952 		Uiso   ? 		C 		0.50268
C 1.0  		0.3238720963154864 		0.9554421434880754  0.7841856825596091 		Uiso   ? 		C 		0.50268
C 1.0  		0.6633053355373 		0.36190990283639224  0.5912354724395043 		Uiso   ? 		C 		0.50268
C 1.0  		0.5123307677871797 		0.29369908725095695  0.7598382089266564 		Uiso   ? 		C 		0.50268
C 1.0  		0.8347806032922787 		0.6870154087741682  0.5667472619647427 		Uiso   ? 		C 		0.50268
C 1.0  		0.6690150574156515 		0.623221120816567  0.7763044194183065 		Uiso   ? 		C 		0.50268
C 1.0  		0.00040139558306444625 		0.025026989891058986  0.5932057882248299 		Uiso   ? 		C 		0.50268
C 1.0  		0.8540878620147505 		0.965747374619688  0.7684231562770039 		Uiso   ? 		C 		0.50268
C 1.0  		0.16565103079558188 		0.3555304740406321  0.5650584198630348 		Uiso   ? 		C 		0.50268
C 1.0  		-0.004103684910137767 		0.289282559623123  0.7993852614749783 		Uiso   ? 		C 		0.50268
C 1.0  		0.3244736620621157 		0.6995289037196978  0.5856059987671453 		Uiso   ? 		C 		0.50268
C 1.0  		0.18175981816430342 		0.6261654725684562  0.762371472079218 		Uiso   ? 		C 		0.50268
C 1.0  		0.17594661863975844 		0.12538031210128572  0.5995389461062338 		Uiso   ? 		C 		0.50718
C 1.0  		0.1773816864199001 		0.9922465403866915  0.8048739983055285 		Uiso   ? 		C 		0.50718
C 1.0  		0.3166043349300669 		0.4551477083128865  0.6183976829086365 		Uiso   ? 		C 		0.50718
C 1.0  		0.34449920909923243 		0.32436941799980373  0.8213402087971786 		Uiso   ? 		C 		0.50718
C 1.0  		0.5011271582796665 		0.7910491706742566  0.6107978934509518 		Uiso   ? 		C 		0.50718
C 1.0  		0.52039974579677 		0.660025517715183  0.7969927351642259 		Uiso   ? 		C 		0.50718
C 1.0  		0.6564591134445781 		0.12169987241142409  0.6281085249934557 		Uiso   ? 		C 		0.50718
C 1.0  		0.6818962371051974 		-0.0029443517518892926  0.8199328403790888 		Uiso   ? 		C 		0.50718
C 1.0  		0.8509800936624728 		0.46569830209048974  0.6054498934622107 		Uiso   ? 		C 		0.50718
C 1.0  		0.8566028455593586 		0.3307488467955639  0.8151477877575836 		Uiso   ? 		C 		0.50718
C 1.0  		-0.01499619620902487 		0.7881048189223674  0.6262789460499391 		Uiso   ? 		C 		0.50718
C 1.0  		0.02090341048686939 		0.6673863970949063  0.8406211561250081 		Uiso   ? 		C 		0.50718
C 1.0  		0.3295262889998688 		0.3228972421238591  0.6683592617508226 		Uiso   ? 		C 		0.50664
C 1.0  		0.34886682269480707 		0.08661301403474335  0.8604650508200736 		Uiso   ? 		C 		0.50664
C 1.0  		0.4965503819047347 		0.6560997153793307  0.6455598933777686 		Uiso   ? 		C 		0.50664
C 1.0  		0.5188898497348707 		0.41858867406026107  0.8437173666448056 		Uiso   ? 		C 		0.50664
C 1.0  		0.656443238724863 		-0.01177740700755717  0.6684999985926315 		Uiso   ? 		C 		0.50664
C 1.0  		0.6861046822354413 		0.7593973893414467  0.8546948403059057 		Uiso   ? 		C 		0.50664
C 1.0  		0.8348519905220748 		0.3216704288939052  0.6509078933665097 		Uiso   ? 		C 		0.50664
C 1.0  		0.8689400011902703 		0.09618215722838357  0.8577910508257031 		Uiso   ? 		C 		0.50664
C 1.0  		0.0008941437965019894 		0.6605162430071647  0.6811663143554393 		Uiso   ? 		C 		0.50664
C 1.0  		0.025645539835975062 		0.4257041907939936  0.8869235770801609 		Uiso   ? 		C 		0.50664
C 1.0  		0.16012313723109797 		-0.012513494945529493  0.6447154723269148 		Uiso   ? 		C 		0.50664
C 1.0  		0.1829585023585876 		0.7535086858376682  0.846109892955558 		Uiso   ? 		C 		0.50664
C 1.0  		0.1615390675486195 		0.2402100304249681  0.6806033669882035 		Uiso   ? 		C 		0.50104
C 1.0  		0.19878441857219653 		1.010403376190009  0.8984639981084969 		Uiso   ? 		C 		0.50104
C 1.0  		0.32505591203706846 		0.5702227892825597  0.7091729458754253 		Uiso   ? 		C 		0.50104
C 1.0  		0.36163686370520176 		0.3454706055550103  0.9069082086170354 		Uiso   ? 		C 		0.50104
C 1.0  		0.4926123909457379 		0.9066149769359113  0.6863735775023714 		Uiso   ? 		C 		0.50104
C 1.0  		0.5371628846492082 		0.685052507606242  0.8879087349728237 		Uiso   ? 		C 		0.50104
C 1.0  		0.6643301611026077 		0.23603886544312494  0.7097358932426613 		Uiso   ? 		C 		0.50104
C 1.0  		0.7080118006560057 		1.0182549808617138  0.9060637875661814 		Uiso   ? 		C 		0.50104
C 1.0  		0.8375910053187422 		0.5719403278044951  0.688766103813124 		Uiso   ? 		C 		0.50104
C 1.0  		0.8888296235466838 		0.3582294631465306  0.908737787560552 		Uiso   ? 		C 		0.50104
C 1.0  		-0.005972887275899008 		0.9021984493080775  0.7102988406098971 		Uiso   ? 		C 		0.50104
C 1.0  		0.030005784366637256 		0.6843164196682698  0.9337889454025495 		Uiso   ? 		C 		0.50104
C 1.0  		0.18639884316921643 		0.05618804593188734  0.5115784199756244 		Uiso   ? 		C 		0.56974
C 1.0  		0.03816501074174419 		0.1082049268819315  0.767860208909768 		Uiso   ? 		C 		0.56974
C 1.0  		0.3344279768001941 		0.384973991559525  0.524807683105668 		Uiso   ? 		C 		0.56974
C 1.0  		0.15950555078073092 		0.4239866522720581  0.7405572615988267 		Uiso   ? 		C 		0.56974
C 1.0  		0.5228524807113969 		0.7299538718225538  0.525229893631095 		Uiso   ? 		C 		0.56974
C 1.0  		0.3559301449267437 		0.7662675434291885  0.756741998406859 		Uiso   ? 		C 		0.56974
C 1.0  		0.6618509196604481 		0.04833644126018256  0.5347999988741052 		Uiso   ? 		C 		0.56974
C 1.0  		0.5035314410971914 		0.09888114633428208  0.7436534721186242 		Uiso   ? 		C 		0.56974
C 1.0  		0.8585296709470703 		0.39282559623122976  0.5176301041734103 		Uiso   ? 		C 		0.56974
C 1.0  		0.694781734793583 		0.4384630483855138  0.7660306299662513 		Uiso   ? 		C 		0.56974
C 1.0  		-0.00913126620332727 		0.7122877613112181  0.5381776830775207 		Uiso   ? 		C 		0.56974
C 1.0  		0.8411262211456609 		0.7643046422612623  0.7383054721298833 		Uiso   ? 		C 		0.56974
C 1.0  		0.5061706466176047 		0.07483560702718618  0.5858874724507632 		Uiso   ? 		C 		0.56888
C 1.0  		0.3335725458810004 		0.010550593777603298  0.7691268404860487 		Uiso   ? 		C 		0.56888
C 1.0  		0.6877801909145262 		0.4227598390421043  0.5996796829480427 		Uiso   ? 		C 		0.56888
C 1.0  		0.5284111007844098 		0.3513593090587889  0.7484385247401294 		Uiso   ? 		C 		0.56888
C 1.0  		0.834242714733566 		0.7360879379723232  0.581806104038303 		Uiso   ? 		C 		0.56888
C 1.0  		0.678164227516608 		0.6789184414564727  0.7643417878645437 		Uiso   ? 		C 		0.56888
C 1.0  		0.020773198995165262 		0.08489547551280793  0.6013685250497505 		Uiso   ? 		C 		0.56888
C 1.0  		0.8674511091009944 		0.024781627245068213  0.762512208921027 		Uiso   ? 		C 		0.56888
C 1.0  		0.16642975023912646 		0.40681126705270393  0.5788506303603145 		Uiso   ? 		C 		0.56888
C 1.0  		0.0004998576353383577 		0.3405633526351948  0.784467156243227 		Uiso   ? 		C 		0.56888
C 1.0  		0.35376125508920886 		0.7576798508195113  0.5991167355808068 		Uiso   ? 		C 		0.56888
C 1.0  		0.19376996854184028 		0.6833349690843067  0.7544902089379153 		Uiso   ? 		C 		0.56888
C 1.0  		0.19264914805424077 		0.185984885661007  0.5915169461231222 		Uiso   ? 		C 		0.56944
C 1.0  		0.1765779859818592 		0.0412209245264501  0.8199328403790888 		Uiso   ? 		C 		0.56944
C 1.0  		0.325843315444472 		0.5105996663068015  0.6057313671458288 		Uiso   ? 		C 		0.56944
C 1.0  		0.36016335937465144 		0.38374717832957117  0.8286585245712452 		Uiso   ? 		C 		0.56944
C 1.0  		0.5145677987954935 		0.8489547551280794  0.5998204197898517 		Uiso   ? 		C 		0.56944
C 1.0  		0.5235005830362031 		0.7142506624791443  0.8076887351417079 		Uiso   ? 		C 		0.56944
C 1.0  		0.6642523297209566 		0.17936009421925608  0.6200865250103441 		Uiso   ? 		C 		0.56944
C 1.0  		0.695073922857567 		0.05103543036608107  0.8341472614017952 		Uiso   ? 		C 		0.56944
C 1.0  		0.8646660936960617 		0.5240946118362941  0.5974278934790992 		Uiso   ? 		C 		0.56944
C 1.0  		0.8546761338306358 		0.3812935518696634  0.8280955772040094 		Uiso   ? 		C 		0.56944
C 1.0  		-0.006885405247131826 		0.8425753263323192  0.6120645250272326 		Uiso   ? 		C 		0.56944
C 1.0  		0.04552501734556075 		0.7272548827166553  0.8500505245262094 		Uiso   ? 		C 		0.56944
C 1.0  		0.35320812475579344 		0.3830110903915988  0.677788630152024 		Uiso   ? 		C 		0.56971
C 1.0  		0.35139592810811593 		0.14181960938266758  0.8534282087296249 		Uiso   ? 		C 		0.56971
C 1.0  		0.4986521858274251 		0.7049268819314949  0.6617446301858008 		Uiso   ? 		C 		0.56971
C 1.0  		0.5237082035986358 		0.4762488958680931  0.8418877877012889 		Uiso   ? 		C 		0.56971
C 1.0  		0.675833604065917 		0.046128177446265586  0.6808848406718214 		Uiso   ? 		C 		0.56971
C 1.0  		0.6968486892018488 		0.8182844243792325  0.8462506297973671 		Uiso   ? 		C 		0.56971
C 1.0  		0.8370612001039097 		0.3736873098439494  0.6630112617620816 		Uiso   ? 		C 		0.56971
C 1.0  		0.877460498397086 		0.15359701639022477  0.8511764192606812 		Uiso   ? 		C 		0.56971
C 1.0  		0.023252895073280877 		0.7230837177348122  0.6841217880334278 		Uiso   ? 		C 		0.56971
C 1.0  		0.021414305557059643 		0.4767396211600746  0.8776349455207685 		Uiso   ? 		C 		0.56971
C 1.0  		0.16072871232463376 		0.034596133084699186  0.6623075775530367 		Uiso   ? 		C 		0.56971
C 1.0  		0.18630469911578243 		0.8082245558936109  0.8539911560968607 		Uiso   ? 		C 		0.56971
C 1.0  		0.17887906748009041 		0.3008146039846894  0.6738479985813727 		Uiso   ? 		C 		0.56857
C 1.0  		0.20979267851711986 		0.06600255177151831  0.8839681034021724 		Uiso   ? 		C 		0.56857
C 1.0  		0.3254249252356904 		0.6185592305427422  0.6932696827510112 		Uiso   ? 		C 		0.56857
C 1.0  		0.3655635899113686 		0.4009225635489253  0.9002935770520135 		Uiso   ? 		C 		0.56857
C 1.0  		0.5088811423927133 		0.9655020119736972  0.6782108406774509 		Uiso   ? 		C 		0.56857
C 1.0  		0.5487897216503661 		0.7444302679360094  0.880308945515139 		Uiso   ? 		C 		0.56857
C 1.0  		0.667993932545317 		0.28756502110118753  0.6960844195871907 		Uiso   ? 		C 		0.56857
C 1.0  		0.7181548258118745 		0.07679850819511239  0.8991676823175417 		Uiso   ? 		C 		0.56857
C 1.0  		0.8535574561799394 		0.6310727254882718  0.6811663143554393 		Uiso   ? 		C 		0.56857
C 1.0  		0.9017642709272511 		0.41809794876827955  0.9049378928317097 		Uiso   ? 		C 		0.56857
C 1.0  		-0.00866854690333918 		0.9507802532142507  0.6958029459035727 		Uiso   ? 		C 		0.56857
C 1.0  		0.03205064722131107 		0.7338796741584062  0.9170412612272816 		Uiso   ? 		C 		0.56857
C 1.0  		0.26649187707672306 		0.03533222102267151  0.5507032619985194 		Uiso   ? 		C 		0.55819
C 1.0  		0.11115605854892768 		0.08759446461870646  0.7231058932145139 		Uiso   ? 		C 		0.55819
C 1.0  		0.4276361391781557 		0.3584748257925214  0.5267779988909936 		Uiso   ? 		C 		0.55819
C 1.0  		0.25412013157439844 		0.3994503876729807  0.744920103694905 		Uiso   ? 		C 		0.55819
C 1.0  		0.6111099515808742 		0.7088526842673472  0.5540809462019348 		Uiso   ? 		C 		0.55819
C 1.0  		0.44109887124757474 		0.7466385317499264  0.7231058932145139 		Uiso   ? 		C 		0.55819
C 1.0  		0.7567349316944616 		0.023064088723132793  0.5325482094051617 		Uiso   ? 		C 		0.55819
C 1.0  		0.5986608126489665 		0.07409951908921386  0.7481570510565114 		Uiso   ? 		C 		0.55819
C 1.0  		0.9361362403315276 		0.3665717931102169  0.5553475777782156 		Uiso   ? 		C 		0.55819
C 1.0  		0.7822813765331504 		0.4234959269800766  0.7332389458247601 		Uiso   ? 		C 		0.55819
C 1.0  		0.08272094235005639 		0.6877514967121405  0.5300149462526001 		Uiso   ? 		C 		0.55819
C 1.0  		0.9328076064949951 		0.7419766414761018  0.7571642089322859 		Uiso   ? 		C 		0.55819
C 1.0  		0.08973108885901679 		0.05324369417999804  0.5580215777725861 		Uiso   ? 		C 		0.56069
C 1.0  		0.9523656782812159 		0.0029443517518892926  0.7941779983280463 		Uiso   ? 		C 		0.56069
C 1.0  		0.27298361346655803 		0.4019040141328884  0.5740655777388093 		Uiso   ? 		C 		0.56069
C 1.0  		0.09015262815171442 		0.31332809893021885  0.7730674720567001 		Uiso   ? 		C 		0.56069
C 1.0  		0.41898181111861815 		0.7194032780449505  0.5595696830324849 		Uiso   ? 		C 		0.56069
C 1.0  		0.2801566948286321 		0.6644420453430171  0.7874226299212155 		Uiso   ? 		C 		0.56069
C 1.0  		0.6101811042539704 		0.06526646383354599  0.5858874724507632 		Uiso   ? 		C 		0.56069
C 1.0  		0.42885746653708867 		-0.013494945529492592  0.7713786299549924 		Uiso   ? 		C 		0.56069
C 1.0  		0.7594411908046856 		0.3854647168515066  0.564917683021226 		Uiso   ? 		C 		0.56069
C 1.0  		0.6124363634529925 		0.33369319854745316  0.7832005246669463 		Uiso   ? 		C 		0.56069
C 1.0  		0.9367898128862093 		0.7252919815487291  0.5885614724451338 		Uiso   ? 		C 		0.56069
C 1.0  		0.7761569004909231 		0.6619884188831093  0.7756007352092616 		Uiso   ? 		C 		0.56069
C 1.0  		0.27169500519983614 		0.16218470899990187  0.6295158934115455 		Uiso   ? 		C 		0.55862
C 1.0  		0.28317999265445937 		0.033860045146726865  0.818525471960999 		Uiso   ? 		C 		0.55862
C 1.0  		0.41968894833942216 		0.48410050053979786  0.6024944197842222 		Uiso   ? 		C 		0.55862
C 1.0  		0.4442432419652912 		0.35896555108450295  0.7978371562150797 		Uiso   ? 		C 		0.55862
C 1.0  		0.6047881458070649 		0.8317793699087251  0.6300788407787814 		Uiso   ? 		C 		0.55862
C 1.0  		0.6245843217051239 		0.7022278928255963  0.8102219982942694 		Uiso   ? 		C 		0.55862
C 1.0  		0.7594979045547241 		0.15948571989400334  0.6130496829198954 		Uiso   ? 		C 		0.55862
C 1.0  		0.7872483483883841 		0.036068308960643836  0.8121923140795951 		Uiso   ? 		C 		0.55862
C 1.0  		0.9446781148129677 		0.5052016880950045  0.6362712618183762 		Uiso   ? 		C 		0.55862
C 1.0  		0.9589319509847631 		0.3722151339680047  0.8344287350854133 		Uiso   ? 		C 		0.55862
C 1.0  		0.08593064613160295 		0.8165668858572971  0.6088275776656261 		Uiso   ? 		C 		0.55862
C 1.0  		0.10523842414009807 		0.6924133869859653  0.8030444193620118 		Uiso   ? 		C 		0.55862
C 1.0  		0.4213553997526475 		0.34718814407694576  0.6390859986545558 		Uiso   ? 		C 		0.56101
C 1.0  		0.4538291441247263 		0.13249582883501818  0.8490653666335467 		Uiso   ? 		C 		0.56101
C 1.0  		0.6017798134290405 		0.694867013445873  0.6575225249315315 		Uiso   ? 		C 		0.56101
C 1.0  		0.626533530614473 		0.4664343900284621  0.8575095771420851 		Uiso   ? 		C 		0.56101
C 1.0  		0.7551072254835782 		0.019383649033271177  0.6452784196941507 		Uiso   ? 		C 		0.56101
C 1.0  		0.7930275586614948 		0.8028265776818138  0.857368840300276 		Uiso   ? 		C 		0.56101
C 1.0  		0.9380792000819662 		0.36068308960643836  0.6697666301689125 		Uiso   ? 		C 		0.56101
C 1.0  		0.966300819861495 		0.1396113455687506  0.8849532612948353 		Uiso   ? 		C 		0.56101
C 1.0  		0.08347877147996646 		0.6816174305623712  0.6417599986489263 		Uiso   ? 		C 		0.56101
C 1.0  		0.12133050885114782 		0.46790656590440677  0.8584947350347479 		Uiso   ? 		C 		0.56101
C 1.0  		0.26478083692927956 		0.027235253704975957  0.6587891565078123 		Uiso   ? 		C 		0.56101
C 1.0  		0.2863259869230556 		0.7962017862400629  0.863983471865298 		Uiso   ? 		C 		0.56101
C 1.0  		0.257637898139644 		0.2743154382176858  0.7086099985081895 		Uiso   ? 		C 		0.56044
C 1.0  		0.30392998019003065 		0.05496123270193346  0.9104266296622597 		Uiso   ? 		C 		0.56044
C 1.0  		0.42928863139059104 		0.6099715379330651  0.6950992616945278 		Uiso   ? 		C 		0.56044
C 1.0  		0.4699004198560969 		0.38988124447934047  0.9025453665209572 		Uiso   ? 		C 		0.56044
C 1.0  		0.5937781163272389 		0.9402296594366474  0.7086099985081895 		Uiso   ? 		C 		0.56044
C 1.0  		0.6444450027290565 		0.727500245362646  0.9012787349446764 		Uiso   ? 		C 		0.56044
C 1.0  		0.771169703592101 		0.2750515261556581  0.7003065248414599 		Uiso   ? 		C 		0.56044
C 1.0  		0.8163928583039515 		0.0603592109137305  0.9114117875549226 		Uiso   ? 		C 		0.56044
C 1.0  		0.9266535885003079 		0.6072725488271666  0.7250762089998396 		Uiso   ? 		C 		0.56044
C 1.0  		0.9778023963148008 		0.3938070468151929  0.9460330506399305 		Uiso   ? 		C 		0.56044
C 1.0  		0.09788531632409242 		0.9458730002944352  0.6914401038074945 		Uiso   ? 		C 		0.56044
C 1.0  		0.12622497357058318 		0.7122877613112181  0.90901926124417 		Uiso   ? 		C 		0.56044
C 1.0  		0.20942085721154885 		-0.012513494945529493  0.5418368409645541 		Uiso   ? 		C 		0.52083
C 1.0  		0.06106434502519578 		0.0392580233585239  0.739290630022546 		Uiso   ? 		C 		0.52083
C 1.0  		0.370280413972899 		0.31430954951418194  0.5356444199249591 		Uiso   ? 		C 		0.52083
C 1.0  		0.19657598791939665 		0.3540582981646875  0.7321130510902883 		Uiso   ? 		C 		0.52083
C 1.0  		0.5538505132659548 		0.6597801550691923  0.5459182093770143 		Uiso   ? 		C 		0.52083
C 1.0  		0.38571897513818887 		0.6970752772597901  0.7332389458247601 		Uiso   ? 		C 		0.52083
C 1.0  		0.7010309844226728 		-0.018647561095298852  0.5470441041114861 		Uiso   ? 		C 		0.52083
C 1.0  		0.5416073880294883 		0.0296888801648837  0.7361944195027486 		Uiso   ? 		C 		0.52083
C 1.0  		0.87916382850265 		0.32019825301796057  0.5459182093770143 		Uiso   ? 		C 		0.52083
C 1.0  		0.7267130619740194 		0.3727058592599863  0.7429497879095794 		Uiso   ? 		C 		0.52083
C 1.0  		0.029647889936822602 		0.6440769457257828  0.5439478935916887 		Uiso   ? 		C 		0.52083
C 1.0  		0.8801178674581402 		0.696093826675827  0.7435127352768154 		Uiso   ? 		C 		0.52083
C 1.0  		0.21766065842518867 		0.3516046717047797  0.5654806303884619 		Uiso   ? 		C 		0.52494
C 1.0  		0.04422554995304327 		0.2779958779075474  0.7950224193789002 		Uiso   ? 		C 		0.52494
C 1.0  		0.3606710407108583 		0.6784277161644912  0.5698434724845401 		Uiso   ? 		C 		0.52494
C 1.0  		0.2249323478235592 		0.6156148787908529  0.7779932615200141 		Uiso   ? 		C 		0.52494
C 1.0  		0.5580478229435034 		0.02134655020119737  0.5709693672190119 		Uiso   ? 		C 		0.52494
C 1.0  		0.37338646179919593 		0.9444008244184906  0.7855930509776988 		Uiso   ? 		C 		0.52494
C 1.0  		0.7007295117748511 		0.3432623417410934  0.5753322093150901 		Uiso   ? 		C 		0.52494
C 1.0  		0.5541144742764254 		0.28462066934929825  0.7771488404691603 		Uiso   ? 		C 		0.52494
C 1.0  		0.8836662958818475 		0.6776916282265188  0.5744877882642362 		Uiso   ? 		C 		0.52494
C 1.0  		0.7177452009009073 		0.6131612523309452  0.7802450509889577 		Uiso   ? 		C 		0.52494
C 1.0  		0.035562716238703135 		0.009078417901658652  0.5730804198461465 		Uiso   ? 		C 		0.52494
C 1.0  		0.8973502020874549 		0.9549514181960939  0.7833412615087553 		Uiso   ? 		C 		0.52494
C 1.0  		0.21508183502475323 		0.11482971832368243  0.6191013671176814 		Uiso   ? 		C 		0.51934
C 1.0  		0.22999591522106333 		0.9878300127588576  0.8044517877801015 		Uiso   ? 		C 		0.51934
C 1.0  		0.3637067722044393 		0.4414074001374031  0.6168495776487377 		Uiso   ? 		C 		0.51934
C 1.0  		0.3891503723419471 		0.312101285700265  0.8105034719778875 		Uiso   ? 		C 		0.51934
C 1.0  		0.5488934589395712 		0.7824614780645796  0.6233234723719506 		Uiso   ? 		C 		0.51934
C 1.0  		0.5694169157680676 		0.6526646383354598  0.80191852462754 		Uiso   ? 		C 		0.51934
C 1.0  		0.7051651852072496 		0.11286681715575622  0.6261382092081301 		Uiso   ? 		C 		0.51934
C 1.0  		0.7284409184381238 		0.9885661006968299  0.8088146298761797 		Uiso   ? 		C 		0.51934
C 1.0  		0.8901153100474677 		0.4551477083128865  0.6248715776318494 		Uiso   ? 		C 		0.51934
C 1.0  		0.9062334143250604 		0.3246147806457945  0.8216216824807965 		Uiso   ? 		C 		0.51934
C 1.0  		0.033120548481826606 		0.7768181372067917  0.6257159986827031 		Uiso   ? 		C 		0.51934
C 1.0  		0.054323142795591695 		0.649229561291589  0.8203550509045157 		Uiso   ? 		C 		0.51934
C 1.0  		0.37041604668555683 		0.30523113161252335  0.6571003144061045 		Uiso   ? 		C 		0.51923
C 1.0  		0.4003945289117383 		0.08342329963686329  0.8597613666110288 		Uiso   ? 		C 		0.51923
C 1.0  		0.5453133947354226 		0.6465305721856904  0.6475302091630943 		Uiso   ? 		C 		0.51923
C 1.0  		0.5698370265028299 		0.4146628717244087  0.852302313995153 		Uiso   ? 		C 		0.51923
C 1.0  		0.698131194293683 		0.9738443419373835  0.654848524937161 		Uiso   ? 		C 		0.51923
C 1.0  		0.7346968718620798 		0.7520365099617234  0.858072524509321 		Uiso   ? 		C 		0.51923
C 1.0  		0.8845066310103611 		0.31430954951418194  0.655129998620779 		Uiso   ? 		C 		0.51923
C 1.0  		0.9133721977837668 		0.08857591520266955  0.8728498928992634 		Uiso   ? 		C 		0.51923
C 1.0  		0.031869078550455066 		0.6391696928059672  0.6610409459767559 		Uiso   ? 		C 		0.51923
C 1.0  		0.07253780808397739 		0.41834331141427034  0.8743979981591621 		Uiso   ? 		C 		0.51923
C 1.0  		0.21190785770450965 		0.9826773971930514  0.643871051276061 		Uiso   ? 		C 		0.51923
C 1.0  		0.2311497833631514 		0.744920993227991  0.8555392613567594 		Uiso   ? 		C 		0.51923
C 1.0  		0.20109046665542543 		0.22794189812542942  0.6976325248470894 		Uiso   ? 		C 		0.52335
C 1.0  		0.2471729156493533 		1.004760035332221  0.9101451559786418 		Uiso   ? 		C 		0.52335
C 1.0  		0.37632946111339016 		0.5648248110707627  0.7097358932426613 		Uiso   ? 		C 		0.52335
C 1.0  		0.41400573298860327 		0.3405633526351948  0.9081748401933162 		Uiso   ? 		C 		0.52335
C 1.0  		0.5364135934991344 		0.8943468446363726  0.7011509458923139 		Uiso   ? 		C 		0.52335
C 1.0  		0.5864494858608519 		0.6769555402885465  0.8953677875886994 		Uiso   ? 		C 		0.52335
C 1.0  		0.7154481610746163 		0.2299047992933556  0.7114247353443689 		Uiso   ? 		C 		0.52335
C 1.0  		0.7587288920059396 		1.0108941014819905  0.9101451559786418 		Uiso   ? 		C 		0.52335
C 1.0  		0.8741106009449181 		0.5604082834429287  0.7114247353443689 		Uiso   ? 		C 		0.52335
C 1.0  		0.9275069902415873 		0.34718814407694576  0.9295668401482804 		Uiso   ? 		C 		0.52335
C 1.0  		0.044842812110331365 		0.8963097458042988  0.7043878932539203 		Uiso   ? 		C 		0.52335
C 1.0  		0.07669203891919851 		0.6722936500147219  0.9288631559392354 		Uiso   ? 		C 		0.52335
C 1.0  		0.1541395691384596 		-0.06060457355972127  0.531000104145263 		Uiso   ? 		C 		0.53413
C 1.0  		0.005325207262015248 		-0.009323780547649426  0.7502681036836462 		Uiso   ? 		C 		0.53413
C 1.0  		0.3115928066656488 		0.2708803611738149  0.5450737883261605 		Uiso   ? 		C 		0.53413
C 1.0  		0.1437330209241881 		0.3138188242222004  0.7153653669150203 		Uiso   ? 		C 		0.53413
C 1.0  		0.49741696391776935 		0.6119344391009913  0.5347999988741052 		Uiso   ? 		C 		0.53413
C 1.0  		0.3295219876849171 		0.6480027480616352  0.7423868405423436 		Uiso   ? 		C 		0.53413
C 1.0  		0.6479273838099661 		-0.05643340857787811  0.5640732619703721 		Uiso   ? 		C 		0.53413
C 1.0  		0.48637294518650914 		0.9863578368829129  0.7218392616382331 		Uiso   ? 		C 		0.53413
C 1.0  		0.823948279120425 		0.2730886249877319  0.5350814725577232 		Uiso   ? 		C 		0.53413
C 1.0  		0.6665444999373509 		0.3246147806457945  0.7422461037005346 		Uiso   ? 		C 		0.53413
C 1.0  		-0.02322794640381809 		0.6033467464913143  0.5613992619760015 		Uiso   ? 		C 		0.53413
C 1.0  		0.8299627363895032 		0.6531553636274414  0.7240910511071766 		Uiso   ? 		C 		0.53413
C 1.0  		0.6474856361575679 		0.3017960545686525  0.5936279987502568 		Uiso   ? 		C 		0.53607
C 1.0  		0.4968221666160737 		0.23505741485916185  0.7688453668024309 		Uiso   ? 		C 		0.53607
C 1.0  		0.8307552690498152 		0.6300912749043086  0.5604141040833388 		Uiso   ? 		C 		0.53607
C 1.0  		0.6598658873146952 		0.5675238001766612  0.7862967351867437 		Uiso   ? 		C 		0.53607
C 1.0  		-0.018797694192373426 		0.9645205613897341  0.587576314552471 		Uiso   ? 		C 		0.53607
C 1.0  		0.8397315221187409 		0.9068603395819022  0.7750377878420257 		Uiso   ? 		C 		0.53607
C 1.0  		0.16239464445183577 		0.30056924133869867  0.5561919988290694 		Uiso   ? 		C 		0.53607
C 1.0  		-0.009027123287087907 		0.23481205221317109  0.8117701035541682 		Uiso   ? 		C 		0.53607
C 1.0  		0.3057272437149388 		0.6369614289920503  0.5844801040326734 		Uiso   ? 		C 		0.53607
C 1.0  		0.16670906668328872 		0.5680145254686427  0.7729267352148911 		Uiso   ? 		C 		0.53607
C 1.0  		0.5032119675766397 		0.9728628913534204  0.5605548409251477 		Uiso   ? 		C 		0.53607
C 1.0  		0.3141423967655579 		0.8990087349101974  0.7958668404297541 		Uiso   ? 		C 		0.53607
C 1.0  		0.15596044974999598 		0.06968299146137992  0.6133311566035133 		Uiso   ? 		C 		0.53408
C 1.0  		0.17400262031727332 		0.9370399450387673  0.7984001035823156 		Uiso   ? 		C 		0.53408
C 1.0  		0.308795844553952 		0.4004318382569438  0.6328935776149609 		Uiso   ? 		C 		0.53408
C 1.0  		0.33074747037477925 		0.26499165767003635  0.8175403140683363 		Uiso   ? 		C 		0.53408
C 1.0  		0.4926066610728508 		0.7336343115124154  0.6185384197504454 		Uiso   ? 		C 		0.53408
C 1.0  		0.5142495098310114 		0.6031013838453235  0.7941779983280463 		Uiso   ? 		C 		0.53408
C 1.0  		0.6492135572717396 		0.0642850132495829  0.6366934723438032 		Uiso   ? 		C 		0.53408
C 1.0  		0.6705440096062156 		0.9394935714986752  0.8120515772377861 		Uiso   ? 		C 		0.53408
C 1.0  		0.8325294994241859 		0.40754735499067624  0.6189606302758723 		Uiso   ? 		C 		0.53408
C 1.0  		0.8508447205928268 		0.2733339876337227  0.813036735130449 		Uiso   ? 		C 		0.53408
C 1.0  		-0.02078486937502949 		0.7365786632643047  0.6413377881234995 		Uiso   ? 		C 		0.53408
C 1.0  		0.0026805805206481237 		0.6062910982432035  0.8373842087634017 		Uiso   ? 		C 		0.53408
C 1.0  		0.3099715769316539 		0.2625380312101286  0.6649815775474072 		Uiso   ? 		C 		0.53703
C 1.0  		0.3446706652482942 		0.03189714397880067  0.8658130508088147 		Uiso   ? 		C 		0.53703
C 1.0  		0.4896728650085388 		0.5994209441554619  0.6362712618183762 		Uiso   ? 		C 		0.53703
C 1.0  		0.5121350125975557 		0.36215526548238297  0.8518801034697261 		Uiso   ? 		C 		0.53703
C 1.0  		0.6391236911549586 		0.9272254391991364  0.6610409459767559 		Uiso   ? 		C 		0.53703
C 1.0  		0.6773059561654317 		0.7010010795956425  0.8591984192437929 		Uiso   ? 		C 		0.53703
C 1.0  		0.8292494146598561 		0.26499165767003635  0.6492190512648021 		Uiso   ? 		C 		0.53703
C 1.0  		0.8578038832246357 		0.03778584748257925  0.8644056823907249 		Uiso   ? 		C 		0.53703
C 1.0  		-0.02124331968509946 		0.5996663068014526  0.6780701038356418 		Uiso   ? 		C 		0.53703
C 1.0  		0.02110541483540393 		0.3690254195701247  0.8895975770745314 		Uiso   ? 		C 		0.53703
C 1.0  		0.1569617395626307 		0.9348316812248504  0.6331750512985788 		Uiso   ? 		C 		0.53703
C 1.0  		0.1747731750829823 		0.6963391893218177  0.8499097876844004 		Uiso   ? 		C 		0.53703
C 1.0  		0.14608740744553006 		0.18083227009520073  0.6873587353950343 		Uiso   ? 		C 		0.53541
C 1.0  		0.18981486929813735 		0.9542153302581216  0.9071896823006532 		Uiso   ? 		C 		0.53541
C 1.0  		0.32050051293676096 		0.5164883698105801  0.7184615774348178 		Uiso   ? 		C 		0.53541
C 1.0  		0.3577430068444671 		0.2905093728530769  0.914930208600147 		Uiso   ? 		C 		0.53541
C 1.0  		0.47798661980938234 		0.8484640298360979  0.6931289459092022 		Uiso   ? 		C 		0.53541
C 1.0  		0.5291243088550681 		0.6269015605064286  0.8901605244417674 		Uiso   ? 		C 		0.53541
C 1.0  		0.6583442718640098 		0.18156835803317303  0.7180393669093909 		Uiso   ? 		C 		0.53541
C 1.0  		0.7009458653100645 		0.960349396407891  0.9083155770351251 		Uiso   ? 		C 		0.53541
C 1.0  		0.8211097636994372 		0.5130532927667093  0.6976325248470894 		Uiso   ? 		C 		0.53541
C 1.0  		0.8756584142712027 		0.2995877907547355  0.91450799807472 		Uiso   ? 		C 		0.53541
C 1.0  		-0.006694665651427123 		0.8501815683580332  0.7190245248020536 		Uiso   ? 		C 		0.53541
C 1.0  		0.025695744784091423 		0.6310727254882718  0.9471589453744023 		Uiso   ? 		C 		0.53541
C 1.0  		0.32460580471389044 		-0.015457846697418787  0.542118314648172 		Uiso   ? 		C 		0.50531
C 1.0  		0.16433224763138782 		0.03287859456276377  0.7231058932145139 		Uiso   ? 		C 		0.50531
C 1.0  		0.498468928955622 		0.3135734615762097  0.5343777883486783 		Uiso   ? 		C 		0.50531
C 1.0  		0.330315640251231 		0.3584748257925214  0.7487199984237474 		Uiso   ? 		C 		0.50531
C 1.0  		0.6643935463224788 		0.6573265286092845  0.5556290514618336 		Uiso   ? 		C 		0.50531
C 1.0  		0.5057999942269574 		0.6958484640298361  0.7254984195252665 		Uiso   ? 		C 		0.50531
C 1.0  		0.8301088059170344 		-0.02355481401511434  0.5318445251961168 		Uiso   ? 		C 		0.50531
C 1.0  		0.6716601711180084 		0.03140641868681912  0.7491422089491744 		Uiso   ? 		C 		0.50531
C 1.0  		-0.008164582945993482 		0.31430954951418194  0.5554883146200246 		Uiso   ? 		C 		0.50531
C 1.0  		0.8409582383735942 		0.3700068701540878  0.7357722089773217 		Uiso   ? 		C 		0.50531
C 1.0  		0.1596372554804377 		0.6511924624595152  0.519600419958736 		Uiso   ? 		C 		0.50531
C 1.0  		0.01118213525778805 		0.701491804887624  0.7647639983899706 		Uiso   ? 		C 		0.50531
C 1.0  		0.3430650505910028 		0.3584748257925214  0.5840578935072466 		Uiso   ? 		C 		0.50445
C 1.0  		0.16271820865324918 		0.26891746000588873  0.7618085247119821 		Uiso   ? 		C 		0.50445
C 1.0  		0.482751960618082 		0.6705761114927864  0.5770210514167977 		Uiso   ? 		C 		0.50445
C 1.0  		0.3353439034983546 		0.611198351163019  0.7857337878195079 		Uiso   ? 		C 		0.50445
C 1.0  		0.6812263842037662 		0.020365099617234275  0.5974278934790992 		Uiso   ? 		C 		0.50445
C 1.0  		0.502155506230891 		0.9444008244184906  0.768000945751577 		Uiso   ? 		C 		0.50445
C 1.0  		0.8237414051619937 		0.3334478359014624  0.5730804198461465 		Uiso   ? 		C 		0.50445
C 1.0  		0.675209800781673 		0.2858474825792522  0.7867189457121706 		Uiso   ? 		C 		0.50445
C 1.0  		0.013401002725461186 		0.6902051231720484  0.6023536829424133 		Uiso   ? 		C 		0.50445
C 1.0  		0.8532111674799215 		0.6227303955245853  0.7703934720623296 		Uiso   ? 		C 		0.50445
C 1.0  		0.15002685928749587 		0.0017175385219354207  0.5736433672133824 		Uiso   ? 		C 		0.50445
C 1.0  		0.00628677795032867 		0.9488173520463246  0.8009333667348771 		Uiso   ? 		C 		0.50445
C 1.0  		0.3302755801499426 		0.11360290509372854  0.6275455776262198 		Uiso   ? 		C 		0.50318
C 1.0  		0.35518263895271773 		-0.00785160467170478  0.8292214719384812 		Uiso   ? 		C 		0.50318
C 1.0  		0.4929336663262256 		0.44189812542938467  0.6085461039820081 		Uiso   ? 		C 		0.50318
C 1.0  		0.5080462608101872 		0.31062910982432035  0.807829471983517 		Uiso   ? 		C 		0.50318
C 1.0  		0.6698508315862016 		0.7863872804004319  0.6328935776149609 		Uiso   ? 		C 		0.50318
C 1.0  		0.6914038699309135 		0.6560997153793307  0.8227475772152683 		Uiso   ? 		C 		0.50318
C 1.0  		0.8344096745747316 		0.1167926194916086  0.6106571566091429 		Uiso   ? 		C 		0.50318
C 1.0  		0.8496982705245729 		0.9858671115909314  0.818243998277381 		Uiso   ? 		C 		0.50318
C 1.0  		0.004178042914793734 		0.4541662577289234  0.6383823144455109 		Uiso   ? 		C 		0.50318
C 1.0  		0.03447836881640792 		0.3307488467955639  0.8441395771702325 		Uiso   ? 		C 		0.50318
C 1.0  		0.1622576321901642 		0.777554225144764  0.6089683145074352 		Uiso   ? 		C 		0.50318
C 1.0  		0.1693437435707723 		0.643831583079792  0.8095183140852246 		Uiso   ? 		C 		0.50318
C 1.0  		0.4893600785989656 		0.3013053292766709  0.6496412617902289 		Uiso   ? 		C 		0.50643
C 1.0  		0.5196103132114525 		0.0851408381587987  0.8432951561193787 		Uiso   ? 		C 		0.50643
C 1.0  		0.6762513290046526 		0.6551182647953676  0.6706110512197662 		Uiso   ? 		C 		0.50643
C 1.0  		0.6904351574956656 		0.41957012464422416  0.857368840300276 		Uiso   ? 		C 		0.50643
C 1.0  		0.818816814554008 		0.9721268034154481  0.6497819986320379 		Uiso   ? 		C 		0.50643
C 1.0  		0.8599850607459016 		0.7539994111296496  0.8591984192437929 		Uiso   ? 		C 		0.50643
C 1.0  		0.01402652653568573 		0.32044361566395135  0.6770849459429791 		Uiso   ? 		C 		0.50643
C 1.0  		0.02680625775695226 		0.08931200314064187  0.8881902086564417 		Uiso   ? 		C 		0.50643
C 1.0  		0.14881736497633785 		0.630827362842281  0.6458413670613866 		Uiso   ? 		C 		0.50643
C 1.0  		0.18268873014127457 		0.41638041024634415  0.8475172613736479 		Uiso   ? 		C 		0.50643
C 1.0  		0.33424525589830234 		0.9834134851310238  0.6715962091124291 		Uiso   ? 		C 		0.50643
C 1.0  		0.3499165155956221 		0.7478653449798803  0.8617316823963544 		Uiso   ? 		C 		0.50643
C 1.0  		0.31969932863762374 		0.22377073314358625  0.7045286300957292 		Uiso   ? 		C 		0.50657
C 1.0  		0.36671507225742994 		1.0050053979782119  0.9102858928204508 		Uiso   ? 		C 		0.50657
C 1.0  		0.501773199101525 		0.5675238001766612  0.6813070511972483 		Uiso   ? 		C 		0.50657
C 1.0  		0.5393027194952729 		0.3442437923250565  0.8943826296960367 		Uiso   ? 		C 		0.50657
C 1.0  		0.6598703836225912 		0.8943468446363726  0.7005879985250779 		Uiso   ? 		C 		0.50657
C 1.0  		0.7109710479919157 		0.6833349690843067  0.8967751560067891 		Uiso   ? 		C 		0.50657
C 1.0  		0.8482744351722274 		0.23971930513298656  0.6907364195984497 		Uiso   ? 		C 		0.50657
C 1.0  		0.8860938391678881 		1.0153106291098244  0.9140857875492931 		Uiso   ? 		C 		0.50657
C 1.0  		-0.010740143603523877 		0.5582000196290117  0.7202911563783345 		Uiso   ? 		C 		0.50657
C 1.0  		0.03352564475986414 		0.3403179899892041  0.9319593664590329 		Uiso   ? 		C 		0.50657
C 1.0  		0.16970834179545335 		0.9046520757679851  0.6798996827791586 		Uiso   ? 		C 		0.50657
C 1.0  		0.19629761307218005 		0.6671410344489155  0.8883309454982506 		Uiso   ? 		C 		0.50657
C 1.0  		0.32118286415601305 		0.03336931985474532  0.5550661040945977 		Uiso   ? 		C 		0.54265
C 1.0  		0.1634110456962962 		0.08415938757483563  0.7128321037624588 		Uiso   ? 		C 		0.54265
C 1.0  		0.4825155447071908 		0.357738737854549  0.5346592620322963 		Uiso   ? 		C 		0.54265
C 1.0  		0.3117707069665654 		0.4004318382569438  0.7416831563332986 		Uiso   ? 		C 		0.54265
C 1.0  		0.6622872137668587 		0.7083619589753657  0.5653398935466529 		Uiso   ? 		C 		0.54265
C 1.0  		0.49731015887860347 		0.7451663558739818  0.7187430511184357 		Uiso   ? 		C 		0.54265
C 1.0  		0.8127008598077287 		0.021101187555206596  0.5333926304560155 		Uiso   ? 		C 		0.54265
C 1.0  		0.6573168978347647 		0.07581705761114928  0.7414016826496806 		Uiso   ? 		C 		0.54265
C 1.0  		-0.012192124675427268 		0.36362744135832764  0.5673102093319785 		Uiso   ? 		C 		0.54265
C 1.0  		0.8376098341294289 		0.4215330258121504  0.7307056826721986 		Uiso   ? 		C 		0.54265
C 1.0  		0.13925212581255925 		0.689469035234076  0.5293112620435553 		Uiso   ? 		C 		0.54265
C 1.0  		-0.011295026787953577 		0.7402591029541663  0.7580086299831398 		Uiso   ? 		C 		0.54265
C 1.0  		0.14185459862465657 		0.04784571596820101  0.5587252619816311 		Uiso   ? 		C 		0.54249
C 1.0  		0.0055664114488478585 		0.0022082638139169692  0.80740726145809 		Uiso   ? 		C 		0.54249
C 1.0  		0.33225309744676046 		0.40484836588477774  0.5746285251060452 		Uiso   ? 		C 		0.54249
C 1.0  		0.14521165450764698 		0.312101285700265  0.7694083141696667 		Uiso   ? 		C 		0.54249
C 1.0  		0.47384362140195746 		0.7152321130631073  0.5618214725014284 		Uiso   ? 		C 		0.54249
C 1.0  		0.33433289114981424 		0.6627245068210816  0.7958668404297541 		Uiso   ? 		C 		0.54249
C 1.0  		0.6670956010928523 		0.06477573854156445  0.5864504198179991 		Uiso   ? 		C 		0.54249
C 1.0  		0.48544559106760804 		-0.012513494945529493  0.7758822088928795 		Uiso   ? 		C 		0.54249
C 1.0  		0.812872510949735 		0.38055746393169104  0.564917683021226 		Uiso   ? 		C 		0.54249
C 1.0  		0.6665315469835739 		0.33393856119344395  0.7933335772771924 		Uiso   ? 		C 		0.54249
C 1.0  		-0.0008612577671816557 		0.7326528609284524  0.5920798934903581 		Uiso   ? 		C 		0.54249
C 1.0  		0.8326464169851459 		0.6614976935911278  0.7816524194070475 		Uiso   ? 		C 		0.54249
C 1.0  		0.3253323390403263 		0.1619393463539111  0.6385230512873199 		Uiso   ? 		C 		0.54467
C 1.0  		0.3413782281501662 		0.035086858376680734  0.8192291561700439 		Uiso   ? 		C 		0.54467
C 1.0  		0.4764326219742545 		0.48581803906173326  0.6055906303040197 		Uiso   ? 		C 		0.54467
C 1.0  		0.5002179677014061 		0.35872018843851217  0.7989630509495514 		Uiso   ? 		C 		0.54467
C 1.0  		0.6623665060314788 		0.8364412601825498  0.6397896828636007 		Uiso   ? 		C 		0.54467
C 1.0  		0.6821122173384101 		0.7029639807635687  0.8119108403959772 		Uiso   ? 		C 		0.54467
C 1.0  		0.8152272707730774 		0.15874963195603103  0.6138941039707493 		Uiso   ? 		C 		0.54467
C 1.0  		0.8422504336763 		0.03557758366866228  0.8127552614468311 		Uiso   ? 		C 		0.54467
C 1.0  		-0.0006577925356780479 		0.505692413386986  0.643308103908825 		Uiso   ? 		C 		0.54467
C 1.0  		0.014682566220349441 		0.3714790460300324  0.835554629819885 		Uiso   ? 		C 		0.54467
C 1.0  		0.14508624797577235 		0.8209834134851312  0.6123459987108505 		Uiso   ? 		C 		0.54467
C 1.0  		0.16102473142646778 		0.6909412111100206  0.7984001035823156 		Uiso   ? 		C 		0.54467
C 1.0  		0.47766529541997294 		0.34718814407694576  0.6386637881291289 		Uiso   ? 		C 		0.54077
C 1.0  		0.5094774975524788 		0.13372264206497206  0.8462506297973671 		Uiso   ? 		C 		0.54077
C 1.0  		0.6612377158589882 		0.6990381784277163  0.66047799860952 		Uiso   ? 		C 		0.54077
C 1.0  		0.6820022632153282 		0.4681519285503975  0.8615909455545454 		Uiso   ? 		C 		0.54077
C 1.0  		0.8116624806686654 		0.019874374325252724  0.637819367078275 		Uiso   ? 		C 		0.54077
C 1.0  		0.850007794191241 		0.8033173029737953  0.8618724192381633 		Uiso   ? 		C 		0.54077
C 1.0  		-0.005221615956832848 		0.36141917754441066  0.6670926301745419 		Uiso   ? 		C 		0.54077
C 1.0  		0.02380182106684542 		0.14280105996663067  0.8904419981253853 		Uiso   ? 		C 		0.54077
C 1.0  		0.13803828117752767 		0.6776916282265188  0.6366934723438032 		Uiso   ? 		C 		0.54077
C 1.0  		0.17414195372490415 		0.4664343900284621  0.8482209455826928 		Uiso   ? 		C 		0.54077
C 1.0  		0.32091111176970755 		0.027725978996957508  0.6621668407112278 		Uiso   ? 		C 		0.54077
C 1.0  		0.3451047518677346 		0.7981646874079891  0.8658130508088147 		Uiso   ? 		C 		0.54077
C 1.0  		0.3131131072173876 		0.2713710864657965  0.7140987353387395 		Uiso   ? 		C 		0.54153
C 1.0  		0.36054217644313424 		0.05471587005594269  0.9150709454419559 		Uiso   ? 		C 		0.54153
C 1.0  		0.48635867733378585 		0.6102169005790559  0.6936918932764382 		Uiso   ? 		C 		0.54153
C 1.0  		0.527853295834042 		0.39061733241731283  0.9022638928373391 		Uiso   ? 		C 		0.54153
C 1.0  		0.6503333715123261 		0.940720384728629  0.7126913669206498 		Uiso   ? 		C 		0.54153
C 1.0  		0.7001831665702576 		0.7284816959466092  0.90901926124417 		Uiso   ? 		C 		0.54153
C 1.0  		0.8322553122329319 		0.28290313082736285  0.7015731564177408 		Uiso   ? 		C 		0.54153
C 1.0  		0.8705449829025493 		0.05986848562174895  0.9176042085945174 		Uiso   ? 		C 		0.54153
C 1.0  		-0.018200397435662263 		0.6070271861811759  0.7305649458303896 		Uiso   ? 		C 		0.54153
C 1.0  		0.03384651451331752 		0.3911080577092944  0.9467367348489754 		Uiso   ? 		C 		0.54153
C 1.0  		0.15411419920081698 		0.9478359014623614  0.6874994722368432 		Uiso   ? 		C 		0.54153
C 1.0  		0.18105391450849034 		0.7076258710373933  0.9022638928373391 		Uiso   ? 		C 		0.54153
C 1.0  		0.25490277903089414 		0.21444695259593682  0.5459182093770143 		Uiso   ? 		C 		0.56242
C 1.0  		0.09184045683956404 		0.2576307782903131  0.7250762089998396 		Uiso   ? 		C 		0.56242
C 1.0  		0.43918256400869143 		0.5562371184610855  0.5317037883543079 		Uiso   ? 		C 		0.56242
C 1.0  		0.2704135553639368 		0.5935322406516832  0.7406979984406358 		Uiso   ? 		C 		0.56242
C 1.0  		0.5916952058653027 		-0.11237609186377467  0.5629473672359003 		Uiso   ? 		C 		0.56242
C 1.0  		0.43110461006719697 		0.9289429777210718  0.7266243142597383 		Uiso   ? 		C 		0.56242
C 1.0  		0.7666207809686819 		0.21665521640985377  0.5408516830718912 		Uiso   ? 		C 		0.56242
C 1.0  		0.6081962178922401 		0.2703896358818334  0.7425275773841524 		Uiso   ? 		C 		0.56242
C 1.0  		0.9198394891490169 		0.5451957993915006  0.5625251567104733 		Uiso   ? 		C 		0.56242
C 1.0  		0.774963832510537 		0.5950044165276278  0.7240910511071766 		Uiso   ? 		C 		0.56242
C 1.0  		0.09990081553536279 		-0.11851015801354402  0.5385998936029476 		Uiso   ? 		C 		0.56242
C 1.0  		0.9466321610071798 		0.9340955932868781  0.7463274721129948 		Uiso   ? 		C 		0.56242
C 1.0  		0.5892424386256422 		0.24438119540681127  0.5981315776881441 		Uiso   ? 		C 		0.56274
C 1.0  		0.43985391011812525 		0.17764255569732065  0.7720823141640372 		Uiso   ? 		C 		0.56274
C 1.0  		0.7767225291421594 		0.5768475807243105  0.5685768409082593 		Uiso   ? 		C 		0.56274
C 1.0  		0.6022601602997579 		0.51010894101482  0.7857337878195079 		Uiso   ? 		C 		0.56274
C 1.0  		0.9222434476734629 		0.9078417901658653  0.5888429461287518 		Uiso   ? 		C 		0.56274
C 1.0  		0.7828706712799367 		0.852635194817941  0.7699712615369027 		Uiso   ? 		C 		0.56274
C 1.0  		0.10758415902261473 		0.24364510746883897  0.5650584198630348 		Uiso   ? 		C 		0.56274
C 1.0  		0.9361652139890425 		0.17666110511335756  0.806844314090854 		Uiso   ? 		C 		0.56274
C 1.0  		0.25237132014659225 		0.5795465698302091  0.5870133671852351 		Uiso   ? 		C 		0.56274
C 1.0  		0.10878576498283701 		0.5137893807046815  0.7751785246838347 		Uiso   ? 		C 		0.56274
C 1.0  		0.4460159468066254 		0.9183923839434684  0.5663250514393157 		Uiso   ? 		C 		0.56274
C 1.0  		0.2599605842304775 		0.8403670625184022  0.7924891562263386 		Uiso   ? 		C 		0.56274
C 1.0  		0.09760337008203732 		0.013740308175483365  0.6122052618690416 		Uiso   ? 		C 		0.56194
C 1.0  		0.12540481447673651 		0.8840416135047602  0.8119108403959772 		Uiso   ? 		C 		0.56194
C 1.0  		0.2532580781942937 		0.3437530670330749  0.6341602091912417 		Uiso   ? 		C 		0.56194
C 1.0  		0.2726357502245823 		0.20953969967612132  0.8233105245825041 		Uiso   ? 		C 		0.56194
C 1.0  		0.4372749084086335 		0.6816174305623712  0.6160051565978839 		Uiso   ? 		C 		0.56194
C 1.0  		0.45811593992264454 		0.5486308764353716  0.802199998311158 		Uiso   ? 		C 		0.56194
C 1.0  		0.5932420129445743 		0.005888703503778585  0.6348638934002866 		Uiso   ? 		C 		0.56194
C 1.0  		0.6168288443840745 		0.883060162920797  0.8200735772208977 		Uiso   ? 		C 		0.56194
C 1.0  		0.7751932036495947 		0.3493964078908627  0.6196643144849172 		Uiso   ? 		C 		0.56194
C 1.0  		0.7960189610638693 		0.2193542055157523  0.8193698930118529 		Uiso   ? 		C 		0.56194
C 1.0  		0.9245389452828295 		0.6803906173324173  0.6403526302308366 		Uiso   ? 		C 		0.56194
C 1.0  		0.94618179404099 		0.5498576896653254  0.8403396824413901 		Uiso   ? 		C 		0.56194
C 1.0  		0.2505191770566154 		0.20610462263225046  0.666529682807306 		Uiso   ? 		C 		0.56354
C 1.0  		0.28645671770078307 		0.9758072431053096  0.8666574718596686 		Uiso   ? 		C 		0.56354
C 1.0  		0.43395547782198307 		0.5432328982235745  0.6410563144398814 		Uiso   ? 		C 		0.56354
C 1.0  		0.4547265016552116 		0.30768475807243106  0.8541318929386698 		Uiso   ? 		C 		0.56354
C 1.0  		0.5842321929351368 		0.8722642064972029  0.6668111564909239 		Uiso   ? 		C 		0.56354
C 1.0  		0.6224297320453462 		0.6430954951418196  0.8562429455658043 		Uiso   ? 		C 		0.56354
C 1.0  		0.7734991581278683 		0.20831288644616744  0.6538633670444982 		Uiso   ? 		C 		0.56354
C 1.0  		0.7990510731964324 		0.9831681224850328  0.863842735023489 		Uiso   ? 		C 		0.56354
C 1.0  		0.9231078545245606 		0.5432328982235745  0.67694420910117 		Uiso   ? 		C 		0.56354
C 1.0  		0.9643131253928157 		0.3145549121601728  0.881153366565993 		Uiso   ? 		C 		0.56354
C 1.0  		0.10391691420291038 		0.8788889979389538  0.6424636828579713 		Uiso   ? 		C 		0.56354
C 1.0  		0.12003722596747349 		0.6421140445578566  0.8556799981985684 		Uiso   ? 		C 		0.56354
C 1.0  		0.267398746509024 		0.46128177446265584  0.7095951564008522 		Uiso   ? 		C 		0.56370
C 1.0  		0.3000386717932334 		0.231622337815291  0.9105673665040687 		Uiso   ? 		C 		0.56370
C 1.0  		0.41841154017546295 		0.7917852586122289  0.6927067353837753 		Uiso   ? 		C 		0.56370
C 1.0  		0.4730717517373021 		0.5704681519285505  0.891567892859857 		Uiso   ? 		C 		0.56370
C 1.0  		0.6030935319903933 		0.12758857591520267  0.7093136827172344 		Uiso   ? 		C 		0.56370
C 1.0  		0.6442229683298777 		0.9034252625380312  0.9046564191480918 		Uiso   ? 		C 		0.56370
C 1.0  		0.7655807949626268 		0.45809206006477576  0.6981954722143254 		Uiso   ? 		C 		0.56370
C 1.0  		0.8200877785661123 		0.24241829423888508  0.9081748401933162 		Uiso   ? 		C 		0.56370
C 1.0  		0.9368394172143469 		0.7942388850721367  0.7128321037624588 		Uiso   ? 		C 		0.56370
C 1.0  		0.9740842322680126 		0.5746393169103936  0.9474404190580202 		Uiso   ? 		C 		0.56370
C 1.0  		0.09063945149932044 		0.12390813622534107  0.6897512617057868 		Uiso   ? 		C 		0.56370
C 1.0  		0.13426182883874271 		0.900480910786142  0.9132413664984392 		Uiso   ? 		C 		0.56370
C 1.0  		0.21722298476976426 		0.15948571989400334  0.5297334725689822 		Uiso   ? 		C 		0.51063
C 1.0  		0.059131270478573486 		0.20708607321621358  0.744920103694905 		Uiso   ? 		C 		0.51063
C 1.0  		0.38685622195656044 		0.4983315340072628  0.5270594725746116 		Uiso   ? 		C 		0.51063
C 1.0  		0.21682106990067646 		0.5373441947197959  0.7429497879095794 		Uiso   ? 		C 		0.51063
C 1.0  		0.5551728511410993 		0.8349690843066052  0.5450737883261605 		Uiso   ? 		C 		0.51063
C 1.0  		0.39202719501320904 		0.8737363823731475  0.7409794721242537 		Uiso   ? 		C 		0.51063
C 1.0  		0.7168771903299374 		0.15924035724801258  0.5425405251735989 		Uiso   ? 		C 		0.51063
C 1.0  		0.5581503266677175 		0.21322013936598294  0.7422461037005346 		Uiso   ? 		C 		0.51063
C 1.0  		0.8819231329929731 		0.4914613799195211  0.5442293672753066 		Uiso   ? 		C 		0.51063
C 1.0  		0.7346860127362842 		0.5424968102856021  0.7415424194914897 		Uiso   ? 		C 		0.51063
C 1.0  		0.04742410264074881 		0.825399941112965  0.5390221041283746 		Uiso   ? 		C 		0.51063
C 1.0  		0.8944701656822096 		0.8786436352929631  0.7422461037005346 		Uiso   ? 		C 		0.51063
C 1.0  		0.5409774815703564 		0.18524879772303465  0.5984130513717619 		Uiso   ? 		C 		0.51127
C 1.0  		0.3888770454136836 		0.12243596034939641  0.7699712615369027 		Uiso   ? 		C 		0.51127
C 1.0  		0.7393320825130307 		0.5309647659240359  0.5912354724395043 		Uiso   ? 		C 		0.51127
C 1.0  		0.5639516931444875 		0.45686524683482194  0.768141682593386 		Uiso   ? 		C 		0.51127
C 1.0  		0.8752775033747386 		0.8474825792521348  0.5870133671852351 		Uiso   ? 		C 		0.51127
C 1.0  		0.7311817997447942 		0.7947296103641182  0.7657491562826333 		Uiso   ? 		C 		0.51127
C 1.0  		0.06676747676766986 		0.1926096771027579  0.5833542092982016 		Uiso   ? 		C 		0.51127
C 1.0  		0.8995085247672394 		0.12587103739326727  0.7870004193957886 		Uiso   ? 		C 		0.51127
C 1.0  		0.20486651336717604 		0.5206595347924232  0.5878577882360888 		Uiso   ? 		C 		0.51127
C 1.0  		0.05886255351719519 		0.45686524683482194  0.7816524194070475 		Uiso   ? 		C 		0.51127
C 1.0  		0.40349934317304426 		0.8673569535773875  0.5832134724563928 		Uiso   ? 		C 		0.51127
C 1.0  		0.22585377707662888 		0.789576994798312  0.7722230510058462 		Uiso   ? 		C 		0.51127
C 1.0  		0.21876563651810677 		0.2887918343311415  0.6155829460724569 		Uiso   ? 		C 		0.51000
C 1.0  		0.22186257806962234 		0.15261556580626168  0.8231697877406953 		Uiso   ? 		C 		0.51000
C 1.0  		0.3856277038417712 		0.6259201099224655  0.6140348408125583 		Uiso   ? 		C 		0.51000
C 1.0  		0.4128610357713638 		0.49636863283933663  0.8179625245937632 		Uiso   ? 		C 		0.51000
C 1.0  		0.5506384560134153 		0.9512709785062322  0.6199457881685352 		Uiso   ? 		C 		0.51000
C 1.0  		0.568752305778534 		0.8251545784669743  0.818525471960999 		Uiso   ? 		C 		0.51000
C 1.0  		0.7227858488068628 		0.29345372460496616  0.6217753671120518 		Uiso   ? 		C 		0.51000
C 1.0  		0.7458920570487458 		0.16414761016782808  0.8282363140458183 		Uiso   ? 		C 		0.51000
C 1.0  		0.8874308828478237 		0.6244479340465208  0.6248715776318494 		Uiso   ? 		C 		0.51000
C 1.0  		0.8986200461935574 		0.4917067425655119  0.8361175771871209 		Uiso   ? 		C 		0.51000
C 1.0  		0.0464015982214005 		0.9576504073019925  0.6119237881854236 		Uiso   ? 		C 		0.51000
C 1.0  		0.08342707332384741 		0.8315340072627343  0.8292214719384812 		Uiso   ? 		C 		0.51000
C 1.0  		0.20434625237919285 		0.1464814996564923  0.6620261038694187 		Uiso   ? 		C 		0.51279
C 1.0  		0.23474377444305625 		0.9191284718814409  0.8644056823907249 		Uiso   ? 		C 		0.51279
C 1.0  		0.394895658013691 		0.4914613799195211  0.6600557880840932 		Uiso   ? 		C 		0.51279
C 1.0  		0.40098726471048607 		0.2524781627245068  0.8493468403171646 		Uiso   ? 		C 		0.51279
C 1.0  		0.535820484398386 		0.8141132593973894  0.6706110512197662 		Uiso   ? 		C 		0.51279
C 1.0  		0.573724520545665 		0.5869074492099323  0.8479394718990748 		Uiso   ? 		C 		0.51279
C 1.0  		0.7281215742177067 		0.15580528020414175  0.6684999985926315 		Uiso   ? 		C 		0.51279
C 1.0  		0.7483283656326005 		0.9301697909510257  0.8511764192606812 		Uiso   ? 		C 		0.51279
C 1.0  		0.8759951587443713 		0.4838551378938071  0.6734257880559458 		Uiso   ? 		C 		0.51279
C 1.0  		0.9196956917585234 		0.2622926685641378  0.8648278929161518 		Uiso   ? 		C 		0.51279
C 1.0  		0.06493163070833047 		0.829816468740799  0.6621668407112278 		Uiso   ? 		C 		0.51279
C 1.0  		0.07219077277995842 		0.5876435371479046  0.8686277876449942 		Uiso   ? 		C 		0.51279
C 1.0  		0.22536406428811845 		0.4095102561586025  0.6920030511747304 		Uiso   ? 		C 		0.51242
C 1.0  		0.2543411920515979 		0.17592501717538522  0.897478840215834 		Uiso   ? 		C 		0.51242
C 1.0  		0.36977854384353465 		0.73191677299048  0.6932696827510112 		Uiso   ? 		C 		0.51242
C 1.0  		0.4216611090653535 		0.5135440180586908  0.8966344191649802 		Uiso   ? 		C 		0.51242
C 1.0  		0.560822287874574 		0.07704387084110316  0.6904549459148317 		Uiso   ? 		C 		0.51242
C 1.0  		0.5987315022836832 		0.8523898321719503  0.8886124191818686 		Uiso   ? 		C 		0.51242
C 1.0  		0.714954374289132 		0.400186475610953  0.6960844195871907 		Uiso   ? 		C 		0.51242
C 1.0  		0.7690868421390865 		0.18843851212091473  0.8981825244248789 		Uiso   ? 		C 		0.51242
C 1.0  		0.8951223096789559 		0.7392776523702032  0.6960844195871907 		Uiso   ? 		C 		0.51242
C 1.0  		0.9399862227370118 		0.5255667877122387  0.9261891559448651 		Uiso   ? 		C 		0.51242
C 1.0  		0.04277540306610951 		0.06600255177151831  0.6952399985363369 		Uiso   ? 		C 		0.51242
C 1.0  		0.08013048089479036 		0.8457650407301993  0.9105673665040687 		Uiso   ? 		C 		0.51242
C 1.0  		0.19901322141630906 		0.20168809500441653  0.5342370515068694 		Uiso   ? 		C 		0.52194
C 1.0  		0.039883127986054895 		0.24806163509667287  0.7426683142259615 		Uiso   ? 		C 		0.52194
C 1.0  		0.38147920287943715 		0.5449504367455099  0.5414146304391271 		Uiso   ? 		C 		0.52194
C 1.0  		0.21634012240998035 		0.5856806359799784  0.7277502089942102 		Uiso   ? 		C 		0.52194
C 1.0  		0.5338034262863032 		-0.12488958680930416  0.5518291567329913 		Uiso   ? 		C 		0.52194
C 1.0  		0.3736049414874242 		0.9159387574835608  0.7350685247682768 		Uiso   ? 		C 		0.52194
C 1.0  		0.7132417595997305 		0.20806752380017668  0.5553475777782156 		Uiso   ? 		C 		0.52194
C 1.0  		0.5544820265920782 		0.2615565806261655  0.7274687353105921 		Uiso   ? 		C 		0.52194
C 1.0  		0.8663947290892011 		0.5356266561978604  0.5470441041114861 		Uiso   ? 		C 		0.52194
C 1.0  		0.716042471415322 		0.5829816468740799  0.7295797879377268 		Uiso   ? 		C 		0.52194
C 1.0  		0.04911334320264577 		-0.12488958680930416  0.5554883146200246 		Uiso   ? 		C 		0.52194
C 1.0  		0.8948567741265274 		0.9304151535970164  0.7322537879320974 		Uiso   ? 		C 		0.52194
C 1.0  		0.5357143446292663 		0.23039552458533713  0.5803987356202132 		Uiso   ? 		C 		0.52299
C 1.0  		0.385265686406061 		0.17003631367160663  0.784889366768654 		Uiso   ? 		C 		0.52299
C 1.0  		0.7245966982305603 		0.5758661301403475  0.581383893512876 		Uiso   ? 		C 		0.52299
C 1.0  		0.5424055045786647 		0.4936696437334381  0.7808079983561937 		Uiso   ? 		C 		0.52299
C 1.0  		0.869990294711064 		0.893856119344391  0.5706878935353938 		Uiso   ? 		C 		0.52299
C 1.0  		0.7267774211158701 		0.8415938757483562  0.7806672615143847 		Uiso   ? 		C 		0.52299
C 1.0  		0.0520890335532159 		0.23677495338109728  0.5768803145749889 		Uiso   ? 		C 		0.52299
C 1.0  		0.8797367938937652 		0.16537442339778194  0.7981186298986976 		Uiso   ? 		C 		0.52299
C 1.0  		0.19829556604667634 		0.5653155363627441  0.570547156693585 		Uiso   ? 		C 		0.52299
C 1.0  		0.059476926233578864 		0.505692413386986  0.795726103587945 		Uiso   ? 		C 		0.52299
C 1.0  		0.3894583704755788 		0.9115222298557268  0.5729396830043375 		Uiso   ? 		C 		0.52299
C 1.0  		0.20206000702863003 		0.8261360290509373  0.7827783141415194 		Uiso   ? 		C 		0.52299
C 1.0  		0.04558910016051173 		0.004907252919815488  0.6288122092025006 		Uiso   ? 		C 		0.52161
C 1.0  		0.07478168887118053 		0.8801158111689078  0.8271104193113464 		Uiso   ? 		C 		0.52161
C 1.0  		0.1965009646446947 		0.3275591323976838  0.620790209219389 		Uiso   ? 		C 		0.52161
C 1.0  		0.21830816013001617 		0.19947983119049956  0.8097997877688425 		Uiso   ? 		C 		0.52161
C 1.0  		0.38472177600641594 		0.674256551182648  0.6309232618296352 		Uiso   ? 		C 		0.52161
C 1.0  		0.40031629190305307 		0.5422514476396114  0.8083924193507528 		Uiso   ? 		C 		0.52161
C 1.0  		0.5380491880609537 		-0.001226813229953872  0.6245901039482313 		Uiso   ? 		C 		0.52161
C 1.0  		0.5597388820492245 		0.8730002944351752  0.8096590509270336 		Uiso   ? 		C 		0.52161
C 1.0  		0.7202545359065836 		0.3444891549710472  0.6312047355132533 		Uiso   ? 		C 		0.52161
C 1.0  		0.7372619466958151 		0.20978506232211208  0.819088419328235 		Uiso   ? 		C 		0.52161
C 1.0  		0.8707173483235231 		0.6683678476788695  0.6250123144736582 		Uiso   ? 		C 		0.52161
C 1.0  		0.8938892952562705 		0.5400431838256944  0.82387347194974 		Uiso   ? 		C 		0.52161
C 1.0  		0.1940490899930582 		0.1926096771027579  0.6511893670501276 		Uiso   ? 		C 		0.52411
C 1.0  		0.2301532985103461 		0.9711453528314851  0.8620131560799723 		Uiso   ? 		C 		0.52411
C 1.0  		0.3777812148673156 		0.5341544803219158  0.6520337881009816 		Uiso   ? 		C 		0.52411
C 1.0  		0.39797403039753143 		0.30424968102856026  0.8584947350347479 		Uiso   ? 		C 		0.52411
C 1.0  		0.5294291579047837 		0.8582785356757289  0.6523152617845994 		Uiso   ? 		C 		0.52411
C 1.0  		0.5660934435094771 		0.6379428795760134  0.8476579982154568 		Uiso   ? 		C 		0.52411
C 1.0  		0.7165494707975948 		0.2019334576504073  0.6594928407168572 		Uiso   ? 		C 		0.52411
C 1.0  		0.7415953927308994 		0.978751594857199  0.8627168402890172 		Uiso   ? 		C 		0.52411
C 1.0  		0.8695316170830161 		0.531700853862008  0.6599150512422841 		Uiso   ? 		C 		0.52411
C 1.0  		0.9110503073058565 		0.31087447247031114  0.8693314718540389 		Uiso   ? 		C 		0.52411
C 1.0  		0.04918193900938095 		0.8722642064972029  0.6538633670444982 		Uiso   ? 		C 		0.52411
C 1.0  		0.07049414646926094 		0.641623319265875  0.8700351560630839 		Uiso   ? 		C 		0.52411
C 1.0  		0.21403732038576836 		0.4561291588968496  0.6993213669487972 		Uiso   ? 		C 		0.52294
C 1.0  		0.24206587942363306 		0.22107174403768773  0.908737787560552 		Uiso   ? 		C 		0.52294
C 1.0  		0.36119010045888417 		0.7797624889586809  0.7038249458866844 		Uiso   ? 		C 		0.52294
C 1.0  		0.4191626655105065 		0.5650701737167534  0.9029675770463841 		Uiso   ? 		C 		0.52294
C 1.0  		0.5497409034899855 		0.12415349887133184  0.6990398932651791 		Uiso   ? 		C 		0.52294
C 1.0  		0.5851219864077654 		0.8918932181764648  0.9073304191424623 		Uiso   ? 		C 		0.52294
C 1.0  		0.7078950290790683 		0.450240455393071  0.7032619985194484 		Uiso   ? 		C 		0.52294
C 1.0  		0.7611270716485765 		0.2345666895671803  0.9108488401876867 		Uiso   ? 		C 		0.52294
C 1.0  		0.8834122524002269 		0.7881048189223674  0.6996028406324151 		Uiso   ? 		C 		0.52294
C 1.0  		0.9229046489360686 		0.568750613406615  0.9332259980353137 		Uiso   ? 		C 		0.52294
C 1.0  		0.037897900647357576 		0.11532044361566396  0.7057952616720099 		Uiso   ? 		C 		0.52294
C 1.0  		0.08329473567912826 		0.8945922072823634  0.9285816822556175 		Uiso   ? 		C 		0.52294
C 1.0  		0.18466934751308675 		0.10967710275787615  0.5097488410321077 		Uiso   ? 		C 		0.57779
C 1.0  		0.032356534843073374 		0.15948571989400334  0.7682824194351948 		Uiso   ? 		C 		0.57779
C 1.0  		0.3366876509731569 		0.4409166748454216  0.5243854725802412 		Uiso   ? 		C 		0.57779
C 1.0  		0.16237862374809803 		0.4811561487879086  0.7428090510677704 		Uiso   ? 		C 		0.57779
C 1.0  		0.5183846845375676 		0.7822161154185888  0.525370630472904 		Uiso   ? 		C 		0.57779
C 1.0  		0.35121698923515265 		0.8180390617332418  0.7556161036723872 		Uiso   ? 		C 		0.57779
C 1.0  		0.664257345314876 		0.10329767396211602  0.5378962093939027 		Uiso   ? 		C 		0.57779
C 1.0  		0.5094691868906206 		0.15580528020414175  0.739290630022546 		Uiso   ? 		C 		0.57779
C 1.0  		0.8489773847370689 		0.44214348807537546  0.5219929462694886 		Uiso   ? 		C 		0.57779
C 1.0  		0.6935670298955612 		0.4917067425655119  0.7602604194520833 		Uiso   ? 		C 		0.57779
C 1.0  		-0.0045911412027561105 		0.7689665325350868  0.5411331567555092 		Uiso   ? 		C 		0.57779
C 1.0  		0.8458218952505452 		0.8217195014231035  0.7363351563445576 		Uiso   ? 		C 		0.57779
C 1.0  		0.4998714516834104 		0.12513494945529494  0.5916576829649312 		Uiso   ? 		C 		0.57704
C 1.0  		0.33823535064045246 		0.06747472764746296  0.768141682593386 		Uiso   ? 		C 		0.57704
C 1.0  		0.6962349494304776 		0.4791932476199824  0.6075609460893454 		Uiso   ? 		C 		0.57704
C 1.0  		0.5249159450587795 		0.4038669153008146  0.750690314209073 		Uiso   ? 		C 		0.57704
C 1.0  		0.8290388400064516 		0.7868780056924134  0.5832134724563928 		Uiso   ? 		C 		0.57704
C 1.0  		0.6805794507938838 		0.7355972126803416  0.7651862089153975 		Uiso   ? 		C 		0.57704
C 1.0  		0.028329853376629917 		0.14378251055059377  0.6044647355695479 		Uiso   ? 		C 		0.57704
C 1.0  		0.8628365614457001 		0.07802532142506625  0.7658898931244423 		Uiso   ? 		C 		0.57704
C 1.0  		0.16278784303203103 		0.46030032387869274  0.5822283145637298 		Uiso   ? 		C 		0.57704
C 1.0  		0.006928322464290981 		0.39846893708901765  0.7877041036048336 		Uiso   ? 		C 		0.57704
C 1.0  		0.3594865107103085 		0.8146039846893709  0.5993982092644249 		Uiso   ? 		C 		0.57704
C 1.0  		0.19028361043905787 		0.7375601138482677  0.7523791563107808 		Uiso   ? 		C 		0.57704
C 1.0  		0.1848296525683076 		0.23579350279713418  0.5965834724282453 		Uiso   ? 		C 		0.57303
C 1.0  		0.1745461897399513 		0.09495534399842968  0.8203550509045157 		Uiso   ? 		C 		0.57303
C 1.0  		0.3334569108939531 		0.568750613406615  0.6110793671345697 		Uiso   ? 		C 		0.57303
C 1.0  		0.3679325039284457 		0.442634213367357  0.8337250508763684 		Uiso   ? 		C 		0.57303
C 1.0  		0.5120693552406467 		0.900480910786142  0.6003833671570876 		Uiso   ? 		C 		0.57303
C 1.0  		0.5199725579651406 		0.7662675434291885  0.8143033667067298 		Uiso   ? 		C 		0.57303
C 1.0  		0.6695854743428293 		0.23677495338109728  0.6243086302646134 		Uiso   ? 		C 		0.57303
C 1.0  		0.6964178976503472 		0.10599666306801453  0.8369619982379748 		Uiso   ? 		C 		0.57303
C 1.0  		0.8537731277612186 		0.5724310530964767  0.6051684197785928 		Uiso   ? 		C 		0.57303
C 1.0  		0.8504208278291361 		0.43355579546569833  0.8323176824582785 		Uiso   ? 		C 		0.57303
C 1.0  		-0.0022554698331119227 		0.8990087349101974  0.6155829460724569 		Uiso   ? 		C 		0.57303
C 1.0  		0.048209671863182646 		0.7831975660025519  0.8508949455770634 		Uiso   ? 		C 		0.57303
C 1.0  		0.3567186682401491 		0.44018058690744927  0.6806033669882035 		Uiso   ? 		C 		0.57637
C 1.0  		0.3502798312463905 		0.1965354794386103  0.8518801034697261 		Uiso   ? 		C 		0.57637
C 1.0  		0.4908896314095084 		0.7539994111296496  0.6666704196491149 		Uiso   ? 		C 		0.57637
C 1.0  		0.5232865183219155 		0.5302286779860634  0.8420285245430978 		Uiso   ? 		C 		0.57637
C 1.0  		0.6831689706522042 		0.10329767396211602  0.6851069459260907 		Uiso   ? 		C 		0.57637
C 1.0  		0.6984051541669587 		0.8732456570811661  0.846672840322794 		Uiso   ? 		C 		0.57637
C 1.0  		0.8330183842747395 		0.4259495534399843  0.6648408407055982 		Uiso   ? 		C 		0.57637
C 1.0  		0.8732709310864506 		0.2068407105702228  0.8537096824132427 		Uiso   ? 		C 		0.57637
C 1.0  		0.02630558886754525 		0.7797624889586809  0.6811663143554393 		Uiso   ? 		C 		0.57637
C 1.0  		0.021369457179829826 		0.5331730297379528  0.8770719981535327 		Uiso   ? 		C 		0.57637
C 1.0  		0.1585413669784128 		0.08759446461870646  0.6601965249259021 		Uiso   ? 		C 		0.57637
C 1.0  		0.18393773294266408 		0.8617136127195997  0.8607465245036915 		Uiso   ? 		C 		0.57637
C 1.0  		0.18184195086090618 		0.357738737854549  0.6741294722649906 		Uiso   ? 		C 		0.57640
C 1.0  		0.20709054241279123 		0.11924624595151635  0.886219892871116 		Uiso   ? 		C 		0.57640
C 1.0  		0.32287833823567486 		0.6725390126607126  0.6958029459035727 		Uiso   ? 		C 		0.57640
C 1.0  		0.36973567563529725 		0.45686524683482194  0.9021231559955303 		Uiso   ? 		C 		0.57640
C 1.0  		0.5119133838254111 		0.022573363431151242  0.6796182090955406 		Uiso   ? 		C 		0.57640
C 1.0  		0.5517766767537663 		0.8001275885759153  0.875101682368207 		Uiso   ? 		C 		0.57640
C 1.0  		0.6660519467168577 		0.34105407792717635  0.6977732616888984 		Uiso   ? 		C 		0.57640
C 1.0  		0.7198668398812975 		0.13249582883501818  0.8931159981197558 		Uiso   ? 		C 		0.57640
C 1.0  		0.8547875488366866 		0.6875061340661498  0.6789145248864957 		Uiso   ? 		C 		0.57640
C 1.0  		0.9020545924812318 		0.47477671999214843  0.9073304191424623 		Uiso   ? 		C 		0.57640
C 1.0  		-0.005309933162278849 		0.0063794287957601335  0.7017138932595497 		Uiso   ? 		C 		0.57640
C 1.0  		0.029985981633971037 		0.7871233683384042  0.91450799807472 		Uiso   ? 		C 		0.57640
C 1.0  		0.1645712443312501 		0.15065266463833546  0.5134079989191411 		Uiso   ? 		C 		0.50124
C 1.0  		0.007901222555501644 		0.1972715673765826  0.7627936826046449 		Uiso   ? 		C 		0.50124
C 1.0  		0.3304694688295634 		0.4892531161056041  0.5342370515068694 		Uiso   ? 		C 		0.50124
C 1.0  		0.16411238839414583 		0.5292472274021004  0.7266243142597383 		Uiso   ? 		C 		0.50124
C 1.0  		0.4941001954540453 		0.8177936990872511  0.5383184199193297 		Uiso   ? 		C 		0.50124
C 1.0  		0.3338331148484312 		0.8614682500736089  0.7499866300000281 		Uiso   ? 		C 		0.50124
C 1.0  		0.663644920442451 		0.14967121405437236  0.5570364198799234 		Uiso   ? 		C 		0.50124
C 1.0  		0.5072554486758559 		0.20365099617234272  0.7238095774235588 		Uiso   ? 		C 		0.50124
C 1.0  		0.8307676213836136 		0.48434586318578865  0.5281853673090835 		Uiso   ? 		C 		0.50124
C 1.0  		0.6748818216063188 		0.5299833153400727  0.7468904194802307 		Uiso   ? 		C 		0.50124
C 1.0  		-0.002701827452395278 		0.8177936990872511  0.5573178935635413 		Uiso   ? 		C 		0.50124
C 1.0  		0.8459062031090846 		0.8737363823731475  0.7240910511071766 		Uiso   ? 		C 		0.50124
C 1.0  		0.49096311246728597 		0.16979095102561587  0.5773025251004158 		Uiso   ? 		C 		0.50502
C 1.0  		0.3364618668700833 		0.11237609186377467  0.7861559983449348 		Uiso   ? 		C 		0.50502
C 1.0  		0.6830856043906104 		0.5255667877122387  0.5999611566316607 		Uiso   ? 		C 		0.50502
C 1.0  		0.5050872731172888 		0.44410638924330165  0.7595567352430385 		Uiso   ? 		C 		0.50502
C 1.0  		0.8204175272763689 		0.8342329963686329  0.5726582093207195 		Uiso   ? 		C 		0.50502
C 1.0  		0.6781203530613575 		0.782952203356561  0.7808079983561937 		Uiso   ? 		C 		0.50502
C 1.0  		0.014411560438045382 		0.18819314947492397  0.5977093671627172 		Uiso   ? 		C 		0.50502
C 1.0  		0.8453540790226822 		0.11998233388948867  0.773771156265745 		Uiso   ? 		C 		0.50502
C 1.0  		0.15306241247202063 		0.5054470507409953  0.5689990514336862 		Uiso   ? 		C 		0.50502
C 1.0  		0.009831943631130852 		0.44974973010108943  0.801355577260304 		Uiso   ? 		C 		0.50502
C 1.0  		0.345993198116383 		0.8590146236137011  0.5899688408632235 		Uiso   ? 		C 		0.50502
C 1.0  		0.1681087489790945 		0.7760820492688193  0.761949261553791 		Uiso   ? 		C 		0.50502
C 1.0  		0.15834572544777772 		0.26867209735989794  0.6081238934565812 		Uiso   ? 		C 		0.50705
C 1.0  		0.16983951052524884 		0.14206497202865837  0.8062813667236182 		Uiso   ? 		C 		0.50705
C 1.0  		0.331725094091864 		0.6158602414368437  0.6295158934115455 		Uiso   ? 		C 		0.50705
C 1.0  		0.35591134844109046 		0.4899892040435765  0.8257030508932568 		Uiso   ? 		C 		0.50705
C 1.0  		0.4972441605447275 		0.9456276376484445  0.6078424197729634 		Uiso   ? 		C 		0.50705
C 1.0  		0.5128146047187804 		0.8148493473353617  0.807547998299899 		Uiso   ? 		C 		0.50705
C 1.0  		0.6710914747168112 		0.2878103837471784  0.6383823144455109 		Uiso   ? 		C 		0.50705
C 1.0  		0.6892030033359706 		0.15531455491216017  0.8289399982548631 		Uiso   ? 		C 		0.50705
C 1.0  		0.8319663055778976 		0.6116890764550005  0.6120645250272326 		Uiso   ? 		C 		0.50705
C 1.0  		0.8461150572365082 		0.4818922367258809  0.8203550509045157 		Uiso   ? 		C 		0.50705
C 1.0  		-0.002981776841569861 		0.9468544508783984  0.6330343144567699 		Uiso   ? 		C 		0.50705
C 1.0  		0.03591028751263353 		0.8295711060948081  0.8462506297973671 		Uiso   ? 		C 		0.50705
C 1.0  		0.1493876682445266 		0.13175974089704584  0.6465450512704315 		Uiso   ? 		C 		0.50657
C 1.0  		0.17913476683762453 		0.9137304936696439  0.858072524509321 		Uiso   ? 		C 		0.50657
C 1.0  		0.3403074343016267 		0.4838551378938071  0.6731443143723278 		Uiso   ? 		C 		0.50657
C 1.0  		0.34832025017223556 		0.24658945922072822  0.8628575771308262 		Uiso   ? 		C 		0.50657
C 1.0  		0.48079616157285543 		0.7984100500539798  0.6534411565190712 		Uiso   ? 		C 		0.50657
C 1.0  		0.5168975129742726 		0.580773383060163  0.8400582087577723 		Uiso   ? 		C 		0.50657
C 1.0  		0.6726921874391721 		0.14991657670036315  0.6762405248921252 		Uiso   ? 		C 		0.50657
C 1.0  		0.691884671437587 		0.9218274609873394  0.8579317876675121 		Uiso   ? 		C 		0.50657
C 1.0  		0.8250914831296617 		0.47256845617823146  0.654707788095352 		Uiso   ? 		C 		0.50657
C 1.0  		0.8632607951863578 		0.2556678771223869  0.8579317876675121 		Uiso   ? 		C 		0.50657
C 1.0  		0.007171328511059671 		0.8192658749631957  0.6697666301689125 		Uiso   ? 		C 		0.50657
C 1.0  		0.02377588283425769 		0.5881342624398862  0.8835458928767455 		Uiso   ? 		C 		0.50657
C 1.0  		0.17134109592528995 		0.40558445382275005  0.6808848406718214 		Uiso   ? 		C 		0.50108
C 1.0  		0.195886478269322 		0.16611051133575427  0.8939604191706098 		Uiso   ? 		C 		0.50108
C 1.0  		0.3153194763672398 		0.7198940033369321  0.7091729458754253 		Uiso   ? 		C 		0.50108
C 1.0  		0.3681200621152005 		0.5088821277848661  0.9083155770351251 		Uiso   ? 		C 		0.50108
C 1.0  		0.506039169235876 		0.07287270585925999  0.6822922090899112 		Uiso   ? 		C 		0.50108
C 1.0  		0.5395976510161387 		0.8403670625184022  0.8912864191762392 		Uiso   ? 		C 		0.50108
C 1.0  		0.6592620327471401 		0.39037196977132205  0.7073433669319087 		Uiso   ? 		C 		0.50108
C 1.0  		0.7117843896319069 		0.17837864363529296  0.9049378928317097 		Uiso   ? 		C 		0.50108
C 1.0  		0.8421529945549273 		0.7336343115124154  0.683277366982574 		Uiso   ? 		C 		0.50108
C 1.0  		0.8854308683703798 		0.5184512709785063  0.9126784191312034 		Uiso   ? 		C 		0.50108
C 1.0  		-0.008331965098081484 		0.05643340857787811  0.7135357879715036 		Uiso   ? 		C 		0.50108
C 1.0  		0.033060426004860366 		0.8361958975365591  0.9323815769844599 		Uiso   ? 		C 		0.50108
C 1.0  		0.1417501147314502 		0.18745706153695163  0.5243854725802412 		Uiso   ? 		C 		0.52743
C 1.0  		-0.01226261931719945 		0.23726567867307882  0.7602604194520833 		Uiso   ? 		C 		0.52743
C 1.0  		0.3236619596141499 		0.535135930905879  0.5488736830550027 		Uiso   ? 		C 		0.52743
C 1.0  		0.1620389251839579 		0.580773383060163  0.7171949458585369 		Uiso   ? 		C 		0.52743
C 1.0  		0.479467038568889 		-0.13666699381686134  0.536066630450386 		Uiso   ? 		C 		0.52743
C 1.0  		0.31470765211479346 		0.9026891746000589  0.7423868405423436 		Uiso   ? 		C 		0.52743
C 1.0  		0.658031339470414 		0.1975169300225734  0.5688583145918772 		Uiso   ? 		C 		0.52743
C 1.0  		0.4982091556011142 		0.2510059868485622  0.7174764195421549 		Uiso   ? 		C 		0.52743
C 1.0  		0.8120430672720507 		0.5267936009421925  0.5317037883543079 		Uiso   ? 		C 		0.52743
C 1.0  		0.6577673784599435 		0.5726764157424674  0.7367573668699845 		Uiso   ? 		C 		0.52743
C 1.0  		-0.006262721868889987 		0.8693198547453137  0.5640732619703721 		Uiso   ? 		C 		0.52743
C 1.0  		0.8409148185542996 		0.9245264500932379  0.7197282090110985 		Uiso   ? 		C 		0.52743
C 1.0  		0.48087844025348087 		0.21591912847188147  0.5656213672302708 		Uiso   ? 		C 		0.52738
C 1.0  		0.3292710442782908 		0.16046717047796646  0.7941779983280463 		Uiso   ? 		C 		0.52738
C 1.0  		0.6672701740007965 		0.5670330748846796  0.5882799987615157 		Uiso   ? 		C 		0.52738
C 1.0  		0.48461233303596174 		0.48262832466385325  0.7702527352205205 		Uiso   ? 		C 		0.52738
C 1.0  		0.8125563648221557 		0.8818333496908431  0.5604141040833388 		Uiso   ? 		C 		0.52738
C 1.0  		0.6674968183668604 		0.8305525566787713  0.7864374720285527 		Uiso   ? 		C 		0.52738
C 1.0  		-0.0037741311928255195 		0.22916871135538328  0.5887022092869427 		Uiso   ? 		C 		0.52738
C 1.0  		0.8330546946721331 		0.16635587398174503  0.7801043141471489 		Uiso   ? 		C 		0.52738
C 1.0  		0.14224166170493033 		0.5501030523113162  0.5560512619872605 		Uiso   ? 		C 		0.52738
C 1.0  		0.009180172936385317 		0.500294435175189  0.812614524605022 		Uiso   ? 		C 		0.52738
C 1.0  		0.332556826590474 		0.9026891746000589  0.5803987356202132 		Uiso   ? 		C 		0.52738
C 1.0  		0.1467597764858649 		0.8158307979193249  0.7699712615369027 		Uiso   ? 		C 		0.52738
C 1.0  		0.48372677622821775 		0.9912650898027285  0.6109386302927609 		Uiso   ? 		C 		0.53188
C 1.0  		0.5015207301618624 		0.8619589753655904  0.8027629456783938 		Uiso   ? 		C 		0.53188
C 1.0  		0.6635742798166563 		0.33737363823731475  0.6369749460274211 		Uiso   ? 		C 		0.53188
C 1.0  		0.6796659912257055 		0.20168809500441653  0.8195106298536619 		Uiso   ? 		C 		0.53188
C 1.0  		0.8139449606741878 		0.6551182647953676  0.6109386302927609 		Uiso   ? 		C 		0.53188
C 1.0  		0.8414412473672379 		0.5294925900480911  0.806985050932663 		Uiso   ? 		C 		0.53188
C 1.0  		-0.0076103003815423806 		-0.004171164981843165  0.6435895775924431 		Uiso   ? 		C 		0.53188
C 1.0  		0.01971154374644074 		0.8732456570811661  0.8382286298142556 		Uiso   ? 		C 		0.53188
C 1.0  		0.1381337401299081 		0.3111198351163019  0.6079831566147723 		Uiso   ? 		C 		0.53188
C 1.0  		0.16358845903622318 		0.18991068799685937  0.7967112614806078 		Uiso   ? 		C 		0.53188
C 1.0  		0.32807438926192073 		0.6676317597408972  0.638100840761893 		Uiso   ? 		C 		0.53188
C 1.0  		0.3430883757095857 		0.5348905682598882  0.8162736824920553 		Uiso   ? 		C 		0.53188
C 1.0  		0.13887801568606245 		0.1778879183433114  0.6351453670839045 		Uiso   ? 		C 		0.52752
C 1.0  		0.17387395104249354 		0.9652566493277065  0.8551170508313325 		Uiso   ? 		C 		0.52752
C 1.0  		0.32118197156798906 		0.5250760624202572  0.6630112617620816 		Uiso   ? 		C 		0.52752
C 1.0  		0.34269139510046204 		0.29737952694081854  0.8682055771195671 		Uiso   ? 		C 		0.52752
C 1.0  		0.4717980119432822 		0.8433114142702915  0.6410563144398814 		Uiso   ? 		C 		0.52752
C 1.0  		0.5086859064891126 		0.6310727254882718  0.8437173666448056 		Uiso   ? 		C 		0.52752
C 1.0  		0.6588637049140363 		0.19408185297870253  0.6658259985982611 		Uiso   ? 		C 		0.52752
C 1.0  		0.6845230256417452 		0.9721268034154481  0.8615909455545454 		Uiso   ? 		C 		0.52752
C 1.0  		0.8168053403307896 		0.5201688095004418  0.643871051276061 		Uiso   ? 		C 		0.52752
C 1.0  		0.8541006199755831 		0.30449504367455105  0.8634205244980621 		Uiso   ? 		C 		0.52752
C 1.0  		-0.008267264979263778 		0.8631857885955442  0.6632927354456996 		Uiso   ? 		C 		0.52752
C 1.0  		0.023174576730640162 		0.6426047698498382  0.8869235770801609 		Uiso   ? 		C 		0.52752
C 1.0  		0.15763529315903496 		0.4499950927470802  0.6917215774911125 		Uiso   ? 		C 		0.52745
C 1.0  		0.18471528347128496 		0.2134655020119737  0.9026861033627661 		Uiso   ? 		C 		0.52745
C 1.0  		0.305578771707493 		0.7679850819511238  0.7169134721749191 		Uiso   ? 		C 		0.52745
C 1.0  		0.364167056699479 		0.5608990087349103  0.9098636822950238 		Uiso   ? 		C 		0.52745
C 1.0  		0.49150747750288715 		0.11605653155363628  0.6927067353837753 		Uiso   ? 		C 		0.52745
C 1.0  		0.5279181419368824 		0.8833055255667878  0.9055008401989456 		Uiso   ? 		C 		0.52745
C 1.0  		0.6492847661924794 		0.4396898616154677  0.7121284195534138 		Uiso   ? 		C 		0.52745
C 1.0  		0.7027468941800129 		0.22745117283344787  0.9111303138713046 		Uiso   ? 		C 		0.52745
C 1.0  		0.8275731593767698 		0.7792717636666995  0.6901734722312137 		Uiso   ? 		C 		0.52745
C 1.0  		0.8713658239503301 		0.5638433604867995  0.9183078928035624 		Uiso   ? 		C 		0.52745
C 1.0  		-0.012718748481309973 		0.10673275100598685  0.7239503142653678 		Uiso   ? 		C 		0.52745
C 1.0  		0.03100223689440884 		0.8847777014427324  0.9456108401145036 		Uiso   ? 		C 		0.52745
C 1.0  		0.22483085034635822 		0.04465600157032094  0.5324074725633526 		Uiso   ? 		C 		0.51183
C 1.0  		0.07129356123349564 		0.09839042104230053  0.7428090510677704 		Uiso   ? 		C 		0.51183
C 1.0  		0.38159615276543085 		0.3722151339680047  0.5255113673147129 		Uiso   ? 		C 		0.51183
C 1.0  		0.20429466788206285 		0.4090195308666209  0.745201577378523 		Uiso   ? 		C 		0.51183
C 1.0  		0.5671444023003168 		0.7186671901069781  0.5383184199193297 		Uiso   ? 		C 		0.51183
C 1.0  		0.4011706352412783 		0.7564530375895575  0.7435127352768154 		Uiso   ? 		C 		0.51183
C 1.0  		0.7090519649711171 		0.036068308960643836  0.5335333672978245 		Uiso   ? 		C 		0.51183
C 1.0  		0.5509690483027742 		0.08538620080478948  0.7463274721129948 		Uiso   ? 		C 		0.51183
C 1.0  		0.8973209197780068 		0.3803121012857003  0.5367703146594309 		Uiso   ? 		C 		0.51183
C 1.0  		0.7410934735926132 		0.43036608106781826  0.7526606299943986 		Uiso   ? 		C 		0.51183
C 1.0  		0.034628269381789145 		0.6978113651977623  0.5319852620379257 		Uiso   ? 		C 		0.51183
C 1.0  		0.8864477242507962 		0.7525272352537051  0.7495644194746012 		Uiso   ? 		C 		0.51183
C 1.0  		0.05778999013375324 		0.06968299146137992  0.581946840880112 		Uiso   ? 		C 		0.50892
C 1.0  		0.9088908480361819 		0.013740308175483365  0.7799635773053398 		Uiso   ? 		C 		0.50892
C 1.0  		0.21994440432073575 		0.40632054176072235  0.5735026303715735 		Uiso   ? 		C 		0.50892
C 1.0  		0.045052412841756456 		0.3268230444597115  0.778415472045441 		Uiso   ? 		C 		0.50892
C 1.0  		0.3862652880177487 		0.7385415644322308  0.5794135777275504 		Uiso   ? 		C 		0.50892
C 1.0  		0.23516156403185912 		0.6747472764746295  0.773630419423936 		Uiso   ? 		C 		0.50892
C 1.0  		0.5583598950741089 		0.07041907939935224  0.5863096829761902 		Uiso   ? 		C 		0.50892
C 1.0  		0.3797264144297582 		-0.004661890273824713  0.767860208909768 		Uiso   ? 		C 		0.50892
C 1.0  		0.7242974653947428 		0.40484836588477774  0.5823690514055389 		Uiso   ? 		C 		0.50892
C 1.0  		0.5686175656539001 		0.342526253803121  0.7672972615425321 		Uiso   ? 		C 		0.50892
C 1.0  		0.8858843030865302 		0.7314260476984984  0.5846208408744824 		Uiso   ? 		C 		0.50892
C 1.0  		0.7261911617940108 		0.6678771223868879  0.767719472067959 		Uiso   ? 		C 		0.50892
C 1.0  		0.2306802466093078 		0.1732260280694867  0.6109386302927609 		Uiso   ? 		C 		0.51060
C 1.0  		0.23139165282002996 		0.039503386004514675  0.8168366298592914 		Uiso   ? 		C 		0.51060
C 1.0  		0.37203005333866185 		0.495877907547355  0.60418326188593 		Uiso   ? 		C 		0.51060
C 1.0  		0.400777209343105 		0.3714790460300324  0.8109256825033143 		Uiso   ? 		C 		0.51060
C 1.0  		0.5596944069739953 		0.840612425164393  0.6151607355470301 		Uiso   ? 		C 		0.51060
C 1.0  		0.5728769946612953 		0.7059083325154578  0.8119108403959772 		Uiso   ? 		C 		0.51060
C 1.0  		0.7092627346174659 		0.16611051133575427  0.6117830513436147 		Uiso   ? 		C 		0.51060
C 1.0  		0.7400954465228836 		0.04588281480027481  0.8181032614355721 		Uiso   ? 		C 		0.51060
C 1.0  		0.9031967089095001 		0.5140347433506723  0.6183976829086365 		Uiso   ? 		C 		0.51060
C 1.0  		0.9078468203581868 		0.37883992540975564  0.8307695771983797 		Uiso   ? 		C 		0.51060
C 1.0  		0.03805046333566531 		0.826626754342919  0.6086868408238172 		Uiso   ? 		C 		0.51060
C 1.0  		0.07509585482976727 		0.7103248601432919  0.8258437877350657 		Uiso   ? 		C 		0.51060
C 1.0  		0.388058347202806 		0.36559034252625383  0.6590706301914302 		Uiso   ? 		C 		0.51097
C 1.0  		0.4038874771503983 		0.1371577191088429  0.85272452452058 		Uiso   ? 		C 		0.51097
C 1.0  		0.5495488980042563 		0.6970752772597901  0.6630112617620816 		Uiso   ? 		C 		0.51097
C 1.0  		0.5755622821239295 		0.47158700559426836  0.8489246297917377 		Uiso   ? 		C 		0.51097
C 1.0  		0.714559114205989 		0.032633231916772996  0.6618853670276098 		Uiso   ? 		C 		0.51097
C 1.0  		0.7429479378285495 		0.810187457061537  0.8563836824076133 		Uiso   ? 		C 		0.51097
C 1.0  		0.8859228209708943 		0.36559034252625383  0.6683592617508226 		Uiso   ? 		C 		0.51097
C 1.0  		0.9226857146118842 		0.14672686230248308  0.8679241034359493 		Uiso   ? 		C 		0.51097
C 1.0  		0.05507779051655204 		0.7017371675336147  0.6647001038637892 		Uiso   ? 		C 		0.51097
C 1.0  		0.07077544308241551 		0.47134164294827763  0.8663759981760505 		Uiso   ? 		C 		0.51097
C 1.0  		0.21396513754304913 		0.033123957208754544  0.6585076828241944 		Uiso   ? 		C 		0.51097
C 1.0  		0.23745556843322316 		0.802581215035823  0.8563836824076133 		Uiso   ? 		C 		0.51097
C 1.0  		0.21606020534583936 		0.2880557463931691  0.6928474722255843 		Uiso   ? 		C 		0.50966
C 1.0  		0.2569631756283161 		0.059623122975758176  0.897197366532216 		Uiso   ? 		C 		0.50966
C 1.0  		0.37859561176324147 		0.6161056040828345  0.6958029459035727 		Uiso   ? 		C 		0.50966
C 1.0  		0.4179565309173544 		0.394788497399156  0.8997306296847776 		Uiso   ? 		C 		0.50966
C 1.0  		0.5518652536022238 		0.9537246049661401  0.6932696827510112 		Uiso   ? 		C 		0.50966
C 1.0  		0.595460702103191 		0.7353518500343508  0.8931159981197558 		Uiso   ? 		C 		0.50966
C 1.0  		0.7186781545498186 		0.2797134164294828  0.6949585248527189 		Uiso   ? 		C 		0.50966
C 1.0  		0.7663789761618705 		0.06870154087741684  0.9070489454588444 		Uiso   ? 		C 		0.50966
C 1.0  		0.8884099997729114 		0.6200314064186869  0.7042471564121112 		Uiso   ? 		C 		0.50966
C 1.0  		0.9403758989312903 		0.4060751791147316  0.9242188401595394 		Uiso   ? 		C 		0.50966
C 1.0  		0.04196753165599393 		0.9453822750024538  0.6924252617001574 		Uiso   ? 		C 		0.50966
C 1.0  		0.07834479077464551 		0.7223476297968398  0.9135228401820571 		Uiso   ? 		C 		0.50966
C 1.0  		0.4329332653706801 		0.047354990676219455  0.536066630450386 		Uiso   ? 		C 		0.56037
C 1.0  		0.2697001199753005 		0.09274708018451272  0.7383054721298833 		Uiso   ? 		C 		0.56037
C 1.0  		0.5956922807292191 		0.3835018156835803  0.55886599882344 		Uiso   ? 		C 		0.56037
C 1.0  		0.4254358408781577 		0.4207969378741781  0.7194467353274806 		Uiso   ? 		C 		0.56037
C 1.0  		0.769132745772251 		0.718912552752969  0.5390221041283746 		Uiso   ? 		C 		0.56037
C 1.0  		0.6120770894741642 		0.7613602905093729  0.733661156350187 		Uiso   ? 		C 		0.56037
C 1.0  		0.9260243473112222 		0.04588281480027481  0.5575993672471593 		Uiso   ? 		C 		0.56037
C 1.0  		0.772502332298096 		0.09667288252036511  0.7294390510959178 		Uiso   ? 		C 		0.56037
C 1.0  		0.09231186010341097 		0.3852193542055158  0.5350814725577232 		Uiso   ? 		C 		0.56037
C 1.0  		0.9443238887530923 		0.4301207184218275  0.7544902089379153 		Uiso   ? 		C 		0.56037
C 1.0  		0.2519293451762161 		0.7125331239572088  0.5528143146256541 		Uiso   ? 		C 		0.56037
C 1.0  		0.09409826450252351 		0.7576798508195113  0.7256391563670754 		Uiso   ? 		C 		0.56037
C 1.0  		0.25137965589476213 		0.07777995877907548  0.5889836829705606 		Uiso   ? 		C 		0.56336
C 1.0  		0.10624740731072427 		0.0063794287957601335  0.7763044194183065 		Uiso   ? 		C 		0.56336
C 1.0  		0.4438062825888345 		0.41588968495436257  0.5609770514505746 		Uiso   ? 		C 		0.56336
C 1.0  		0.2597684160768375 		0.3346746491314163  0.7874226299212155 		Uiso   ? 		C 		0.56336
C 1.0  		0.5854847827725105 		0.7434488173520464  0.5884207356033248 		Uiso   ? 		C 		0.56336
C 1.0  		0.44051688091563357 		0.6745019138286388  0.7699712615369027 		Uiso   ? 		C 		0.56336
C 1.0  		0.7780113157179376 		0.07581705761114928  0.5706878935353938 		Uiso   ? 		C 		0.56336
C 1.0  		0.6035665421212318 		0.012513494945529493  0.7864374720285527 		Uiso   ? 		C 		0.56336
C 1.0  		0.9240053580390686 		0.40435764059279616  0.5926428408575941 		Uiso   ? 		C 		0.56336
C 1.0  		0.7818220659600902 		0.3516046717047797  0.7799635773053398 		Uiso   ? 		C 		0.56336
C 1.0  		0.10617916916484421 		0.7397683776621848  0.5695619988009221 		Uiso   ? 		C 		0.56336
C 1.0  		0.9392401129958878 		0.6762194523505741  0.8090961035597977 		Uiso   ? 		C 		0.56336
C 1.0  		0.43777067536311004 		0.17985081951123763  0.6179754723832095 		Uiso   ? 		C 		0.56185
C 1.0  		0.4545919888485558 		0.05029934242810875  0.8026222088365849 		Uiso   ? 		C 		0.56185
C 1.0  		0.5894385347922333 		0.5137893807046815  0.6324713670895339 		Uiso   ? 		C 		0.56185
C 1.0  		0.6125600171338527 		0.38153891451565414  0.8217624193226055 		Uiso   ? 		C 		0.56185
C 1.0  		0.7681431106983349 		0.8516537442339779  0.6089683145074352 		Uiso   ? 		C 		0.56185
C 1.0  		0.7982438993813965 		0.718912552752969  0.813036735130449 		Uiso   ? 		C 		0.56185
C 1.0  		0.9233107191360855 		0.17985081951123763  0.643871051276061 		Uiso   ? 		C 		0.56185
C 1.0  		0.951803717999919 		0.05324369417999804  0.8375249456052106 		Uiso   ? 		C 		0.56185
C 1.0  		0.10369479846977622 		0.515506919226617  0.6138941039707493 		Uiso   ? 		C 		0.56185
C 1.0  		0.12142301371255654 		0.3852193542055158  0.806985050932663 		Uiso   ? 		C 		0.56185
C 1.0  		0.2576495852033963 		0.8455196780842086  0.6354268407675224 		Uiso   ? 		C 		0.56185
C 1.0  		0.27301633682796755 		0.7164589262930612  0.8223253666898414 		Uiso   ? 		C 		0.56185
C 1.0  		0.5903031689613092 		0.37442339778192174  0.6644186301801713 		Uiso   ? 		C 		0.56109
C 1.0  		0.6203691404549799 		0.14599077436451074  0.864264945548916 		Uiso   ? 		C 		0.56109
C 1.0  		0.7755555943873054 		0.7164589262930612  0.6452784196941507 		Uiso   ? 		C 		0.56109
C 1.0  		0.7968261348789053 		0.48360977524781634  0.8655315771251968 		Uiso   ? 		C 		0.56109
C 1.0  		0.9199014781359864 		0.041711649818431645  0.6689222091180586 		Uiso   ? 		C 		0.56109
C 1.0  		0.9600254046818397 		0.8168122485032879  0.8829829455095096 		Uiso   ? 		C 		0.56109
C 1.0  		0.1025636871513261 		0.3717244086760232  0.6402118933890276 		Uiso   ? 		C 		0.56109
C 1.0  		0.1206403985810945 		0.143537147904603  0.8568058929330402 		Uiso   ? 		C 		0.56109
C 1.0  		0.2483299652003912 		0.7032093434095594  0.6649815775474072 		Uiso   ? 		C 		0.56109
C 1.0  		0.2859974394527564 		0.4772303464520562  0.8655315771251968 		Uiso   ? 		C 		0.56109
C 1.0  		0.4312638921915167 		0.04146628717244087  0.6448562091687238 		Uiso   ? 		C 		0.56109
C 1.0  		0.45801389083438654 		0.8072431053096477  0.8521615771533441 		Uiso   ? 		C 		0.56109
C 1.0  		0.4251352608183603 		0.2910000981450584  0.6908771564402586 		Uiso   ? 		C 		0.56279
C 1.0  		0.472121754453752 		0.07090980469133379  0.8963529454813622 		Uiso   ? 		C 		0.56279
C 1.0  		0.6018616864826316 		0.6278830110903917  0.7059359985138189 		Uiso   ? 		C 		0.56279
C 1.0  		0.6441011811590209 		0.41147315732652867  0.9074711559842713 		Uiso   ? 		C 		0.56279
C 1.0  		0.7642285908419437 		0.9645205613897341  0.689188314338551 		Uiso   ? 		C 		0.56279
C 1.0  		0.8168296393713519 		0.7441849052900187  0.908737787560552 		Uiso   ? 		C 		0.56279
C 1.0  		0.9434492557212113 		0.2949259004809108  0.7208541037455704 		Uiso   ? 		C 		0.56279
C 1.0  		0.978529823229261 		0.0794974973010109  0.9446256822218406 		Uiso   ? 		C 		0.56279
C 1.0  		0.08386758741125461 		0.6271469231524194  0.6917215774911125 		Uiso   ? 		C 		0.56279
C 1.0  		0.13443354463081614 		0.40656590440671314  0.9098636822950238 		Uiso   ? 		C 		0.56279
C 1.0  		0.26575071827945124 		0.9632937481597803  0.7086099985081895 		Uiso   ? 		C 		0.56279
C 1.0  		0.29933689114331585 		0.7287270585926  0.9074711559842713 		Uiso   ? 		C 		0.56279
C 1.0  		0.3798555706655275 		-0.009078417901658652  0.5321259988797348 		Uiso   ? 		C 		0.51587
C 1.0  		0.21656548420213148 		0.03704975954460693  0.7385869458135013 		Uiso   ? 		C 		0.51587
C 1.0  		0.5573092772602362 		0.3275591323976838  0.5440886304334976 		Uiso   ? 		C 		0.51587
C 1.0  		0.38698062224142193 		0.3685346942781431  0.7370388405536025 		Uiso   ? 		C 		0.51587
C 1.0  		0.7177221031003024 		0.6619884188831093  0.5443701041171156 		Uiso   ? 		C 		0.51587
C 1.0  		0.5601516560441079 		0.704681519285504  0.7387276826553101 		Uiso   ? 		C 		0.51587
C 1.0  		0.8884102917409566 		-0.008096967317695556  0.5397257883374194 		Uiso   ? 		C 		0.51587
C 1.0  		0.729854251282786 		0.043674550986357835  0.7463274721129948 		Uiso   ? 		C 		0.51587
C 1.0  		0.04358905335803402 		0.3255962312297576  0.5371925251848578 		Uiso   ? 		C 		0.51587
C 1.0  		0.8914915535657014 		0.3741780351359309  0.7533643142034435 		Uiso   ? 		C 		0.51587
C 1.0  		0.21663740740183904 		0.6614976935911278  0.5322667357215437 		Uiso   ? 		C 		0.51587
C 1.0  		0.06263994745292578 		0.7083619589753657  0.7471718931638487 		Uiso   ? 		C 		0.51587
C 1.0  		0.3985513784375537 		0.36362744135832764  0.5764581040495619 		Uiso   ? 		C 		0.51734
C 1.0  		0.2192693085074072 		0.28044950436745514  0.7726452615312732 		Uiso   ? 		C 		0.51734
C 1.0  		0.5381355250974073 		0.6852978702522329  0.5912354724395043 		Uiso   ? 		C 		0.51734
C 1.0  		0.3881664671409182 		0.6178231426047699  0.7710971562713744 		Uiso   ? 		C 		0.51734
C 1.0  		0.7340313526006341 		0.02355481401511434  0.587294840868853 		Uiso   ? 		C 		0.51734
C 1.0  		0.5610527956035216 		0.9576504073019925  0.7713786299549924 		Uiso   ? 		C 		0.51734
C 1.0  		0.8751357998122267 		0.3457159682010011  0.5912354724395043 		Uiso   ? 		C 		0.51734
C 1.0  		0.7304202209109896 		0.29639807635685544  0.7757414720510706 		Uiso   ? 		C 		0.51734
C 1.0  		0.06501204287895263 		0.6914319364020022  0.5879985250778978 		Uiso   ? 		C 		0.51734
C 1.0  		0.908813698608465 		0.6327902640102072  0.7837634720341822 		Uiso   ? 		C 		0.51734
C 1.0  		0.20547616245768555 		0.01742074786534498  0.5884207356033248 		Uiso   ? 		C 		0.51734
C 1.0  		0.05277398224532709 		0.9512709785062322  0.7806672615143847 		Uiso   ? 		C 		0.51734
C 1.0  		0.38611467317339976 		0.12243596034939641  0.6155829460724569 		Uiso   ? 		C 		0.51594
C 1.0  		0.41295459588870737 		1.000588870350378  0.8231697877406953 		Uiso   ? 		C 		0.51594
C 1.0  		0.5505319429422948 		0.45637452154284036  0.6191013671176814 		Uiso   ? 		C 		0.51594
C 1.0  		0.5638700797339079 		0.32240651683187754  0.8220438930062234 		Uiso   ? 		C 		0.51594
C 1.0  		0.7201235131608109 		0.7930120718421828  0.6144570513379851 		Uiso   ? 		C 		0.51594
C 1.0  		0.7502835640578485 		0.6659142212189617  0.8266882087859195 		Uiso   ? 		C 		0.51594
C 1.0  		0.8926782910532217 		0.13175974089704584  0.6220568407956698 		Uiso   ? 		C 		0.51594
C 1.0  		0.9035351415836156 		0.9949455294925901  0.8323176824582785 		Uiso   ? 		C 		0.51594
C 1.0  		0.05155687486739041 		0.4588281480027481  0.6182569460668275 		Uiso   ? 		C 		0.51594
C 1.0  		0.08559221345748745 		0.3356560997153794  0.8272511561531555 		Uiso   ? 		C 		0.51594
C 1.0  		0.22055032039123856 		0.7912945333202475  0.6182569460668275 		Uiso   ? 		C 		0.51594
C 1.0  		0.22623881097898854 		0.6573265286092845  0.8213402087971786 		Uiso   ? 		C 		0.51594
C 1.0  		0.5432080684268156 		0.31848071449602516  0.6675148406999688 		Uiso   ? 		C 		0.51738
C 1.0  		0.5709037786794292 		0.08955736578663265  0.8575095771420851 		Uiso   ? 		C 		0.51738
C 1.0  		0.7336347943024328 		0.6632152321130631  0.6624483143948456 		Uiso   ? 		C 		0.51738
C 1.0  		0.7477200147571494 		0.42619491608597515  0.8568058929330402 		Uiso   ? 		C 		0.51738
C 1.0  		0.8726624832358985 		0.9829227598390422  0.6642778933383623 		Uiso   ? 		C 		0.51738
C 1.0  		0.9169523433218707 		0.7638139169692807  0.8659537876506236 		Uiso   ? 		C 		0.51738
C 1.0  		0.06897399190154463 		0.32706840710570223  0.6651223143892162 		Uiso   ? 		C 		0.51738
C 1.0  		0.06896912229164784 		0.0890666404946511  0.8651093665997698 		Uiso   ? 		C 		0.51738
C 1.0  		0.20251628217676326 		0.6426047698498382  0.6620261038694187 		Uiso   ? 		C 		0.51738
C 1.0  		0.23653207767720577 		0.4207969378741781  0.8586354718765569 		Uiso   ? 		C 		0.51738
C 1.0  		0.388926909384833 		-0.01005986848562175  0.6610409459767559 		Uiso   ? 		C 		0.51738
C 1.0  		0.40519035326984354 		0.7530179605456866  0.852443050836962 		Uiso   ? 		C 		0.51738
C 1.0  		0.3740926574230542 		0.23481205221317109  0.6877809459204611 		Uiso   ? 		C 		0.51377
C 1.0  		0.42172827631415327 		1.0126116400039258  0.8987454717921148 		Uiso   ? 		C 		0.51377
C 1.0  		0.559713122125693 		0.577583668662283  0.6872179985532253 		Uiso   ? 		C 		0.51377
C 1.0  		0.596506563966156 		0.35283148493473354  0.9002935770520135 		Uiso   ? 		C 		0.51377
C 1.0  		0.7161761239589876 		0.9053881637059574  0.6903142090730228 		Uiso   ? 		C 		0.51377
C 1.0  		0.768190166562535 		0.6889783099420944  0.9007157875774405 		Uiso   ? 		C 		0.51377
C 1.0  		0.9032788416061028 		0.24560800863676513  0.7000250511578421 		Uiso   ? 		C 		0.51377
C 1.0  		0.9417745259711614 		0.027235253704975957  0.9261891559448651 		Uiso   ? 		C 		0.51377
C 1.0  		0.04013066266575338 		0.5689959760526058  0.7000250511578421 		Uiso   ? 		C 		0.51377
C 1.0  		0.08102947761730105 		0.3516046717047797  0.90901926124417 		Uiso   ? 		C 		0.51377
C 1.0  		0.22438637592096636 		0.9120129551477084  0.6903142090730228 		Uiso   ? 		C 		0.51377
C 1.0  		0.25249594774943185 		0.6749926391206204  0.8922715770689019 		Uiso   ? 		C 		0.51377
C 1.0  		0.32663112447890974 		-0.06453037589557367  0.5264965252073758 		Uiso   ? 		C 		0.56854
C 1.0  		0.16412526001396743 		-0.019383649033271177  0.7342241037174229 		Uiso   ? 		C 		0.56854
C 1.0  		0.5203984308978237 		0.2745608008636765  0.5274816831000386 		Uiso   ? 		C 		0.56854
C 1.0  		0.3492286128125392 		0.3172539012660713  0.756882735248668 		Uiso   ? 		C 		0.56854
C 1.0  		0.6638273170512639 		0.6060457355972128  0.5439478935916887 		Uiso   ? 		C 		0.56854
C 1.0  		0.5095909740614775 		0.6477573854156444  0.7391498931807371 		Uiso   ? 		C 		0.56854
C 1.0  		0.8525706938630396 		-0.0593777603297674  0.519318946275118 		Uiso   ? 		C 		0.56854
C 1.0  		0.6869520131268665 		-0.011532044361566397  0.7601196826102743 		Uiso   ? 		C 		0.56854
C 1.0  		-0.005247635523375871 		0.2674452841299441  0.5390221041283746 		Uiso   ? 		C 		0.56854
C 1.0  		0.8386263490328782 		0.3177446265580528  0.7477348405310845 		Uiso   ? 		C 		0.56854
C 1.0  		0.17781414948846075 		0.6084993620571205  0.5145338936536129 		Uiso   ? 		C 		0.56854
C 1.0  		0.03145985926652206 		0.660025517715183  0.7692675773278578 		Uiso   ? 		C 		0.56854
C 1.0  		0.35247058531953923 		0.31013838453233883  0.5906725250722684 		Uiso   ? 		C 		0.56637
C 1.0  		0.18166405055998958 		0.22818726077142018  0.7540679984124884 		Uiso   ? 		C 		0.56637
C 1.0  		0.4955091946587223 		0.6246932966925115  0.5870133671852351 		Uiso   ? 		C 		0.56637
C 1.0  		0.33411613198756657 		0.561144371380901  0.7703934720623296 		Uiso   ? 		C 		0.56637
C 1.0  		0.6935221491932977 		0.9748257925213466  0.6074202092475364 		Uiso   ? 		C 		0.56637
C 1.0  		0.5173575378263006 		0.9017077240160958  0.7588530510339936 		Uiso   ? 		C 		0.56637
C 1.0  		0.8311206462035314 		0.28658357051722444  0.5849023145581004 		Uiso   ? 		C 		0.56637
C 1.0  		0.679703989824046 		0.23873785454902346  0.7730674720567001 		Uiso   ? 		C 		0.56637
C 1.0  		0.022953288935462723 		0.6408872313279027  0.6060128408294466 		Uiso   ? 		C 		0.56637
C 1.0  		0.8716334210057065 		0.5805280204141722  0.7627936826046449 		Uiso   ? 		C 		0.56637
C 1.0  		0.16292722544858373 		0.9556875061340663  0.5832134724563928 		Uiso   ? 		C 		0.56637
C 1.0  		0.0037993395052999257 		0.8958190205123172  0.7908003141246309 		Uiso   ? 		C 		0.56637
C 1.0  		0.3340424882618783 		0.06673863970949064  0.6119237881854236 		Uiso   ? 		C 		0.56715
C 1.0  		0.3701838351145166 		0.9473451761703799  0.8399174719159632 		Uiso   ? 		C 		0.56715
C 1.0  		0.5160154295435236 		0.40264010207086076  0.6020722092587953 		Uiso   ? 		C 		0.56715
C 1.0  		0.5164310116453561 		0.2645009323780548  0.8197921035372798 		Uiso   ? 		C 		0.56715
C 1.0  		0.6689582300066241 		0.7365786632643047  0.6157236829142659 		Uiso   ? 		C 		0.56715
C 1.0  		0.7014468751764384 		0.6077632741191481  0.829784419305717 		Uiso   ? 		C 		0.56715
C 1.0  		0.855881326826842 		0.07728923348709393  0.604042525044121 		Uiso   ? 		C 		0.56715
C 1.0  		0.8565539231851549 		0.937530670330749  0.8257030508932568 		Uiso   ? 		C 		0.56715
C 1.0  		0.0002777095771705762 		0.4038669153008146  0.6212124197448159 		Uiso   ? 		C 		0.56715
C 1.0  		0.04969567451155395 		0.2851113946412798  0.8479394718990748 		Uiso   ? 		C 		0.56715
C 1.0  		0.1818409446138932 		0.7368240259102955  0.6023536829424133 		Uiso   ? 		C 		0.56715
C 1.0  		0.17930573602569655 		0.5974580429875357  0.8196513666954708 		Uiso   ? 		C 		0.56715
C 1.0  		0.49709208481740946 		0.2581215035822947  0.666388945965497 		Uiso   ? 		C 		0.56993
C 1.0  		0.5238984885583844 		0.03336931985474532  0.8476579982154568 		Uiso   ? 		C 		0.56993
C 1.0  		0.6884937722871851 		0.6094808126410836  0.677788630152024 		Uiso   ? 		C 		0.56993
C 1.0  		0.6987125026716899 		0.3702522328000785  0.8521615771533441 		Uiso   ? 		C 		0.56993
C 1.0  		0.8272256371117611 		0.9247718127392287  0.6576632617733406 		Uiso   ? 		C 		0.56993
C 1.0  		0.8719252034426559 		0.7086073216213564  0.8537096824132427 		Uiso   ? 		C 		0.56993
C 1.0  		0.033609838959414676 		0.2797134164294828  0.6873587353950343 		Uiso   ? 		C 		0.56993
C 1.0  		0.018818146553940047 		0.035086858376680734  0.8753831560518249 		Uiso   ? 		C 		0.56993
C 1.0  		0.15598411584554597 		0.583963097458043  0.6601965249259021 		Uiso   ? 		C 		0.56993
C 1.0  		0.1903198071774625 		0.3653449798802631  0.8465321034809851 		Uiso   ? 		C 		0.56993
C 1.0  		0.34932460773483115 		0.9404750220826382  0.6814477880390573 		Uiso   ? 		C 		0.56993
C 1.0  		0.351295567220805 		0.6970752772597901  0.8515986297861082 		Uiso   ? 		C 		0.56993
C 1.0  		0.326318419403292 		0.17666110511335756  0.6920030511747304 		Uiso   ? 		C 		0.57053
C 1.0  		0.37143702557186875 		0.9549514181960939  0.9026861033627661 		Uiso   ? 		C 		0.57053
C 1.0  		0.5155030735903642 		0.5218863480223771  0.6741294722649906 		Uiso   ? 		C 		0.57053
C 1.0  		0.551602103845822 		0.2978702522328001  0.8869235770801609 		Uiso   ? 		C 		0.57053
C 1.0  		0.6689736177653495 		0.8462557660221808  0.6914401038074945 		Uiso   ? 		C 		0.57053
C 1.0  		0.7197391122034635 		0.6349985278241241  0.8881902086564417 		Uiso   ? 		C 		0.57053
C 1.0  		0.8621029176973634 		0.1955540288546472  0.6821514722481022 		Uiso   ? 		C 		0.57053
C 1.0  		0.9041809227624623 		0.9728628913534204  0.908737787560552 		Uiso   ? 		C 		0.57053
C 1.0  		-0.005282111735799788 		0.5096182157228384  0.7087507353499984 		Uiso   ? 		C 		0.57053
C 1.0  		0.034521383008668055 		0.29173618608303076  0.9154931559673828 		Uiso   ? 		C 		0.57053
C 1.0  		0.1850899942177604 		0.8614682500736089  0.6722998933214739 		Uiso   ? 		C 		0.57053
C 1.0  		0.2092761349079978 		0.6229757581705762  0.8781978928880044 		Uiso   ? 		C 		0.57053
C 1.0  		0.3769562184886057 		0.0412209245264501  0.5447923146425425 		Uiso   ? 		C 		0.52523
C 1.0  		0.21647017123377368 		0.08955736578663265  0.7269057879433563 		Uiso   ? 		C 		0.52523
C 1.0  		0.5384949127352245 		0.3702522328000785  0.547747788320531 		Uiso   ? 		C 		0.52523
C 1.0  		0.3701115386128083 		0.4117185199725194  0.7319723142484793 		Uiso   ? 		C 		0.52523
C 1.0  		0.7167680318197784 		0.7127784866031995  0.5540809462019348 		Uiso   ? 		C 		0.52523
C 1.0  		0.5546278854855194 		0.7522818726077142  0.7236688405817499 		Uiso   ? 		C 		0.52523
C 1.0  		0.8690723388349892 		0.033123957208754544  0.5460589462188232 		Uiso   ? 		C 		0.52523
C 1.0  		0.7165405595157579 		0.08759446461870646  0.7364758931863665 		Uiso   ? 		C 		0.52523
C 1.0  		0.03925041341997412 		0.37344194719795865  0.5508439988403284 		Uiso   ? 		C 		0.52523
C 1.0  		0.89254850187244 		0.4264402787319659  0.7412609458078717 		Uiso   ? 		C 		0.52523
C 1.0  		0.19671892504689972 		0.7019825301796055  0.5391628409701835 		Uiso   ? 		C 		0.52523
C 1.0  		0.0411442234782311 		0.7490921582098342  0.7414016826496806 		Uiso   ? 		C 		0.52523
C 1.0  		0.1968701238273393 		0.06183138678967515  0.5736433672133824 		Uiso   ? 		C 		0.52626
C 1.0  		0.05642609894931774 		0.004907252919815488  0.79094105096644 		Uiso   ? 		C 		0.52626
C 1.0  		0.3891458437090173 		0.4119638826185102  0.5694212619591131 		Uiso   ? 		C 		0.52626
C 1.0  		0.20175395673895705 		0.321915791539896  0.7799635773053398 		Uiso   ? 		C 		0.52626
C 1.0  		0.5295623558124931 		0.7301992344685445  0.5763173672077528 		Uiso   ? 		C 		0.52626
C 1.0  		0.38714665716953 		0.6676317597408972  0.784467156243227 		Uiso   ? 		C 		0.52626
C 1.0  		0.7240781577685578 		0.07164589262930611  0.5808209461456401 		Uiso   ? 		C 		0.52626
C 1.0  		0.5448817429209308 		-0.0007360879379723231  0.7823561036160924 		Uiso   ? 		C 		0.52626
C 1.0  		0.869187048908979 		0.39331632152321133  0.5789913672021234 		Uiso   ? 		C 		0.52626
C 1.0  		0.7255339208693896 		0.3439984296790657  0.7881263141302604 		Uiso   ? 		C 		0.52626
C 1.0  		0.05246729901064173 		0.737314751202277  0.5809616829874491 		Uiso   ? 		C 		0.52626
C 1.0  		0.8867198499391024 		0.6693492982628326  0.7943187351698553 		Uiso   ? 		C 		0.52626
C 1.0  		0.3821200007893981 		0.1722445774855236  0.6274048407844109 		Uiso   ? 		C 		0.52604
C 1.0  		0.3978788634131962 		0.04269310040239474  0.8116293667123593 		Uiso   ? 		C 		0.52604
C 1.0  		0.533516107832216 		0.5005397978211797  0.6181162092250185 		Uiso   ? 		C 		0.52604
C 1.0  		0.5565237080378024 		0.369761507508097  0.8107849456615054 		Uiso   ? 		C 		0.52604
C 1.0  		0.7145515991570539 		0.8430660516243008  0.6243086302646134 		Uiso   ? 		C 		0.52604
C 1.0  		0.7403785126709407 		0.7115516733732457  0.8138811561813029 		Uiso   ? 		C 		0.52604
C 1.0  		0.8711168283876627 		0.1715084895475513  0.6272641039426019 		Uiso   ? 		C 		0.52604
C 1.0  		0.8974191868373365 		0.043919913632348616  0.8228883140570773 		Uiso   ? 		C 		0.52604
C 1.0  		0.05240133300179939 		0.5110903915987831  0.6300788407787814 		Uiso   ? 		C 		0.52604
C 1.0  		0.06793011020757213 		0.37810383747178333  0.8207772614299426 		Uiso   ? 		C 		0.52604
C 1.0  		0.2031993153499494 		0.835214446952596  0.6221975776374788 		Uiso   ? 		C 		0.52604
C 1.0  		0.2175846289034737 		0.7041907939935225  0.8093775772434156 		Uiso   ? 		C 		0.52604
C 1.0  		0.5349043303822474 		0.36264599077436455  0.6506264196828918 		Uiso   ? 		C 		0.52542
C 1.0  		0.5654874137799853 		0.14034743350672294  0.8548355771477145 		Uiso   ? 		C 		0.52542
C 1.0  		0.7186540505022007 		0.7076258710373933  0.6525967354682174 		Uiso   ? 		C 		0.52542
C 1.0  		0.7394755389265572 		0.4760035332221023  0.8614502087127365 		Uiso   ? 		C 		0.52542
C 1.0  		0.8651729794193456 		0.030424968102856022  0.6542855775699251 		Uiso   ? 		C 		0.52542
C 1.0  		0.9052904294883103 		0.810187457061537  0.8722869455320276 		Uiso   ? 		C 		0.52542
C 1.0  		0.048442110752201006 		0.3663264304642262  0.6542855775699251 		Uiso   ? 		C 		0.52542
C 1.0  		0.07420365887722405 		0.14500932378054765  0.8745387350009711 		Uiso   ? 		C 		0.52542
C 1.0  		0.19423013937789096 		0.6902051231720484  0.649359788106611 		Uiso   ? 		C 		0.52542
C 1.0  		0.23066666071051847 		0.47281381882422224  0.8575095771420851 		Uiso   ? 		C 		0.52542
C 1.0  		0.37594838754901516 		0.034105407792717646  0.6525967354682174 		Uiso   ? 		C 		0.52542
C 1.0  		0.4016294588533489 		0.8045441162037492  0.8584947350347479 		Uiso   ? 		C 		0.52542
C 1.0  		0.3697780892075786 		0.28143095495141823  0.7043878932539203 		Uiso   ? 		C 		0.52620
C 1.0  		0.41621692273943045 		0.06109529885170282  0.9074711559842713 		Uiso   ? 		C 		0.52620
C 1.0  		0.5442657310125217 		0.6197860437726961  0.6986176827397523 		Uiso   ? 		C 		0.52620
C 1.0  		0.5847548397191468 		0.3994503876729807  0.9059230507243726 		Uiso   ? 		C 		0.52620
C 1.0  		0.7074650008154562 		0.9529885170281677  0.7003065248414599 		Uiso   ? 		C 		0.52620
C 1.0  		0.7590540630743446 		0.7365786632643047  0.9083155770351251 		Uiso   ? 		C 		0.52620
C 1.0  		0.8886902088050975 		0.2895279222691138  0.7101581037680883 		Uiso   ? 		C 		0.52620
C 1.0  		0.9211857037538012 		0.06722936500147218  0.9346333664534034 		Uiso   ? 		C 		0.52620
C 1.0  		0.036339682831233455 		0.6170870546667976  0.7150838932314024 		Uiso   ? 		C 		0.52620
C 1.0  		0.08358033360723474 		0.3992050250269899  0.9277372612047636 		Uiso   ? 		C 		0.52620
C 1.0  		0.2114166517079965 		0.9578957699479832  0.6962251564289997 		Uiso   ? 		C 		0.52620
C 1.0  		0.2393618768093011 		0.7184218274609874  0.9047971559899007 		Uiso   ? 		C 		0.52620
C 1.0  		0.6014103455944626 		0.19604475414662875  0.5630881040777093 		Uiso   ? 		C 		0.56413
C 1.0  		0.4416779721386114 		0.24928844832662678  0.7256391563670754 		Uiso   ? 		C 		0.56413
C 1.0  		0.7559785311224869 		0.5272843262341742  0.5290297883599373 		Uiso   ? 		C 		0.56413
C 1.0  		0.5985789072703419 		0.5677691628226519  0.7411202089660627 		Uiso   ? 		C 		0.56413
C 1.0  		0.943143368099449 		0.8693198547453137  0.5488736830550027 		Uiso   ? 		C 		0.56413
C 1.0  		0.7852664651265472 		0.923299636863284  0.7305649458303896 		Uiso   ? 		C 		0.56413
C 1.0  		0.08566150685930224 		0.18917460005888706  0.5270594725746116 		Uiso   ? 		C 		0.56413
C 1.0  		0.9313404973073778 		0.23628422808911573  0.7596974720848474 		Uiso   ? 		C 		0.56413
C 1.0  		0.2686686719490817 		0.5373441947197959  0.5461996830606323 		Uiso   ? 		C 		0.56413
C 1.0  		0.10974227106830925 		0.5820001962901168  0.7291575774122998 		Uiso   ? 		C 		0.56413
C 1.0  		0.4225678158297437 		-0.13912062027676905  0.5295927357271731 		Uiso   ? 		C 		0.56413
C 1.0  		0.2561413773424441 		0.9007262734321327  0.744920103694905 		Uiso   ? 		C 		0.56413
C 1.0  		0.42569673413866754 		0.21690057905584456  0.5677324198574054 		Uiso   ? 		C 		0.56249
C 1.0  		0.2721352596442316 		0.15924035724801258  0.7881263141302604 		Uiso   ? 		C 		0.56249
C 1.0  		0.6069535132586827 		0.561144371380901  0.5847615777162914 		Uiso   ? 		C 		0.56249
C 1.0  		0.42863760729984673 		0.482873687309844  0.7684231562770039 		Uiso   ? 		C 		0.56249
C 1.0  		0.7576047441253677 		0.8862498773186771  0.5636510514449451 		Uiso   ? 		C 		0.56249
C 1.0  		0.6118155955936757 		0.8288350181568359  0.7795413667799129 		Uiso   ? 		C 		0.56249
C 1.0  		0.9379647173259545 		0.22573363431151244  0.5898281040214145 		Uiso   ? 		C 		0.56249
C 1.0  		0.776810537695672 		0.16733732456570816  0.7791191562544859 		Uiso   ? 		C 		0.56249
C 1.0  		0.08684746541778743 		0.5510845028952792  0.5623844198686644 		Uiso   ? 		C 		0.56249
C 1.0  		0.9566585772540221 		0.5032387869270784  0.8003704193676413 		Uiso   ? 		C 		0.56249
C 1.0  		0.27260820512500294 		0.8975365590342527  0.5802579987784042 		Uiso   ? 		C 		0.56249
C 1.0  		0.09210165875200721 		0.8182844243792325  0.7741933667911719 		Uiso   ? 		C 		0.56249
C 1.0  		0.4241943374845577 		0.9843949357149867  0.6088275776656261 		Uiso   ? 		C 		0.56519
C 1.0  		0.44484279521789444 		0.861222887427618  0.8052962088309554 		Uiso   ? 		C 		0.56519
C 1.0  		0.6093892858726262 		0.33737363823731475  0.6317676828804891 		Uiso   ? 		C 		0.56519
C 1.0  		0.6236014550761417 		0.20217882029639808  0.8148663140739657 		Uiso   ? 		C 		0.56519
C 1.0  		0.7556569147650323 		0.6541368142114045  0.6116423145018057 		Uiso   ? 		C 		0.56519
C 1.0  		0.7870766325963106 		0.5299833153400727  0.8050147351473373 		Uiso   ? 		C 		0.56519
C 1.0  		0.9385274242112528 		-0.0022082638139169692  0.6345824197166686 		Uiso   ? 		C 		0.56519
C 1.0  		0.9613124384066035 		0.8725095691431938  0.8366805245543568 		Uiso   ? 		C 		0.56519
C 1.0  		0.0827242697430288 		0.3150456374521543  0.610234946083716 		Uiso   ? 		C 		0.56519
C 1.0  		0.10884932851176465 		0.19432721562469332  0.8002296825258323 		Uiso   ? 		C 		0.56519
C 1.0  		0.2732847941463342 		0.6681224850328786  0.6338787355076236 		Uiso   ? 		C 		0.56519
C 1.0  		0.2862308199387204 		0.5346452056138974  0.8176810509101451 		Uiso   ? 		C 		0.56519
C 1.0  		0.0840074077798752 		0.18034154480321918  0.6421822091743532 		Uiso   ? 		C 		0.56662
C 1.0  		0.11832420565103763 		0.9655020119736972  0.863983471865298 		Uiso   ? 		C 		0.56662
C 1.0  		0.263645278311855 		0.5226224359603494  0.6587891565078123 		Uiso   ? 		C 		0.56662
C 1.0  		0.2875754276765131 		0.29934242810874473  0.8662352613342416 		Uiso   ? 		C 		0.56662
C 1.0  		0.41651122131528384 		0.8474825792521348  0.6469672617958585 		Uiso   ? 		C 		0.56662
C 1.0  		0.4518852917862637 		0.6300912749043086  0.8430136824357607 		Uiso   ? 		C 		0.56662
C 1.0  		0.6002228938279747 		0.18941996270487782  0.6673741038581598 		Uiso   ? 		C 		0.56662
C 1.0  		0.6252776133841269 		0.9679556384336049  0.8658130508088147 		Uiso   ? 		C 		0.56662
C 1.0  		0.7626620133550396 		0.5223770733143587  0.6468265249540495 		Uiso   ? 		C 		0.56662
C 1.0  		0.7954598088895213 		0.2998331534007263  0.8682055771195671 		Uiso   ? 		C 		0.56662
C 1.0  		0.9330794725402894 		0.860241436843655  0.6631519986038905 		Uiso   ? 		C 		0.56662
C 1.0  		0.9672684123907409 		0.6426047698498382  0.8839681034021724 		Uiso   ? 		C 		0.56662
C 1.0  		0.59383362883732 		0.4414074001374031  0.7107210511353241 		Uiso   ? 		C 		0.56209
C 1.0  		0.6447282795112036 		0.22573363431151244  0.90901926124417 		Uiso   ? 		C 		0.56209
C 1.0  		0.7676814789793152 		0.7733830601629209  0.6900327353894047 		Uiso   ? 		C 		0.56209
C 1.0  		0.8172706404197487 		0.5635979978408088  0.9049378928317097 		Uiso   ? 		C 		0.56209
C 1.0  		0.932455133286134 		0.1101678280498577  0.7216985247964242 		Uiso   ? 		C 		0.56209
C 1.0  		0.9772385695235006 		0.8882127784866033  0.9478626295834471 		Uiso   ? 		C 		0.56209
C 1.0  		0.09969769128082617 		0.44631465305721857  0.694254840643674 		Uiso   ? 		C 		0.56209
C 1.0  		0.13262464305107738 		0.2193542055157523  0.9083155770351251 		Uiso   ? 		C 		0.56209
C 1.0  		0.2500706932843171 		0.7704387084110316  0.7107210511353241 		Uiso   ? 		C 		0.56209
C 1.0  		0.307964566691298 		0.5640887231327903  0.9095822086114059 		Uiso   ? 		C 		0.56209
C 1.0  		0.4336684836609749 		0.11384826773971932  0.6914401038074945 		Uiso   ? 		C 		0.56209
C 1.0  		0.4699981353043694 		0.883060162920797  0.9052193665153278 		Uiso   ? 		C 		0.56209
C 1.0  		0.549169658624851 		0.14893512611640006  0.5485922093713849 		Uiso   ? 		C 		0.52983
C 1.0  		0.38532543558102655 		0.19947983119049956  0.7332389458247601 		Uiso   ? 		C 		0.52983
C 1.0  		0.7053262045414381 		0.4880263028756503  0.5483107356877669 		Uiso   ? 		C 		0.52983
C 1.0  		0.539637142822482 		0.5221317106683679  0.7309871563558166 		Uiso   ? 		C 		0.52983
C 1.0  		0.8871019297504903 		0.8209834134851312  0.5411331567555092 		Uiso   ? 		C 		0.52983
C 1.0  		0.7286028303603362 		0.8720188438512121  0.7366166300281756 		Uiso   ? 		C 		0.52983
C 1.0  		0.03500038265540552 		0.14819903817842772  0.5442293672753066 		Uiso   ? 		C 		0.52983
C 1.0  		0.8804997522765837 		0.19579939150063796  0.7409794721242537 		Uiso   ? 		C 		0.52983
C 1.0  		0.21259436425469086 		0.4885170281676318  0.5385998936029476 		Uiso   ? 		C 		0.52983
C 1.0  		0.0577381459936116 		0.5336637550299342  0.7425275773841524 		Uiso   ? 		C 		0.52983
C 1.0  		0.3655348435718319 		0.8160761605653156  0.5418368409645541 		Uiso   ? 		C 		0.52983
C 1.0  		0.20185032496324956 		0.8563156345078027  0.7300019984631537 		Uiso   ? 		C 		0.52983
C 1.0  		0.3665031336961574 		0.17543429188340368  0.5719545251116747 		Uiso   ? 		C 		0.52693
C 1.0  		0.21891313460357323 		0.1101678280498577  0.7757414720510706 		Uiso   ? 		C 		0.52693
C 1.0  		0.5561609116730573 		0.5182059083325156  0.5668879988065515 		Uiso   ? 		C 		0.52693
C 1.0  		0.37355353529935054 		0.4377269604475415  0.7796821036217219 		Uiso   ? 		C 		0.52693
C 1.0  		0.69818985588768 		0.8430660516243008  0.5708286303772029 		Uiso   ? 		C 		0.52693
C 1.0  		0.555920908726182 		0.7795171263126902  0.7722230510058462 		Uiso   ? 		C 		0.52693
C 1.0  		0.8882257689791287 		0.18107763274119149  0.5726582093207195 		Uiso   ? 		C 		0.52693
C 1.0  		0.7183988381056563 		0.11851015801354402  0.784889366768654 		Uiso   ? 		C 		0.52693
C 1.0  		0.033406373727911054 		0.506673863970949  0.576176630365944 		Uiso   ? 		C 		0.52693
C 1.0  		0.9004046487327337 		0.45490234566689575  0.7908003141246309 		Uiso   ? 		C 		0.52693
C 1.0  		0.21832362922269696 		0.8484640298360979  0.570547156693585 		Uiso   ? 		C 		0.52693
C 1.0  		0.04596856685789502 		0.7782903130827364  0.7950224193789002 		Uiso   ? 		C 		0.52693
C 1.0  		0.553943651072376 		0.2868289331632153  0.6236049460555686 		Uiso   ? 		C 		0.52826
C 1.0  		0.568843755384008 		0.15555991755815096  0.8036073667292477 		Uiso   ? 		C 		0.52826
C 1.0  		0.6992168889399581 		0.6109529885170283  0.6244493671064224 		Uiso   ? 		C 		0.52826
C 1.0  		0.7295236913184608 		0.482873687309844  0.8107849456615054 		Uiso   ? 		C 		0.52826
C 1.0  		0.8849841051240621 		0.9527431543821769  0.621493893428434 		Uiso   ? 		C 		0.52826
C 1.0  		0.908916202332679 		0.8246638531749928  0.8230290508988862 		Uiso   ? 		C 		0.52826
C 1.0  		0.029154021817383025 		0.2750515261556581  0.627123367100793 		Uiso   ? 		C 		0.52826
C 1.0  		0.058302086443900905 		0.15187947786828934  0.818525471960999 		Uiso   ? 		C 		0.52826
C 1.0  		0.2199071200013628 		0.6183138678967515  0.6196643144849172 		Uiso   ? 		C 		0.52826
C 1.0  		0.23180829017779714 		0.48827166552164103  0.8048739983055285 		Uiso   ? 		C 		0.52826
C 1.0  		0.36839178217647217 		0.9412111100206105  0.6221975776374788 		Uiso   ? 		C 		0.52826
C 1.0  		0.38529642959847815 		0.8160761605653156  0.8110664193451234 		Uiso   ? 		C 		0.52826
C 1.0  		0.031490813093029174 		0.1386298949847875  0.6585076828241944 		Uiso   ? 		C 		0.52988
C 1.0  		0.06812740761412067 		0.9203552851113946  0.88016820867333 		Uiso   ? 		C 		0.52988
C 1.0  		0.21116802944732968 		0.4767396211600746  0.6440117881178699 		Uiso   ? 		C 		0.52988
C 1.0  		0.23172888425418808 		0.24757090980469132  0.8569466297748493 		Uiso   ? 		C 		0.52988
C 1.0  		0.3583712741115735 		0.8042987535577585  0.6579447354569584 		Uiso   ? 		C 		0.52988
C 1.0  		0.39733128464361167 		0.5817548336441261  0.8551170508313325 		Uiso   ? 		C 		0.52988
C 1.0  		0.5447467108282515 		0.1447639611345569  0.6514708407337455 		Uiso   ? 		C 		0.52988
C 1.0  		0.5718013312028591 		0.9166748454215331  0.858353998192939 		Uiso   ? 		C 		0.52988
C 1.0  		0.7042109679427031 		0.4777210717440377  0.6544263144117342 		Uiso   ? 		C 		0.52988
C 1.0  		0.736802749781744 		0.2505152615565806  0.8663759981760505 		Uiso   ? 		C 		0.52988
C 1.0  		0.8809790605752547 		0.8168122485032879  0.6469672617958585 		Uiso   ? 		C 		0.52988
C 1.0  		0.911724169554194 		0.590587888899794  0.874960945526398 		Uiso   ? 		C 		0.52988
C 1.0  		0.5412577719364982 		0.3940524094611837  0.6977732616888984 		Uiso   ? 		C 		0.52753
C 1.0  		0.5864633314026529 		0.17592501717538522  0.9022638928373391 		Uiso   ? 		C 		0.52753
C 1.0  		0.713031184946326 		0.7299538718225538  0.7034027353612574 		Uiso   ? 		C 		0.52753
C 1.0  		0.7570210655924795 		0.5174698203945431  0.9104266296622597 		Uiso   ? 		C 		0.52753
C 1.0  		0.8788256231465125 		0.06453037589557367  0.7069211564064818 		Uiso   ? 		C 		0.52753
C 1.0  		0.9250395495221693 		0.8433114142702915  0.9330852611935048 		Uiso   ? 		C 		0.52753
C 1.0  		0.05117674289996116 		0.40239473942487  0.7133950511296946 		Uiso   ? 		C 		0.52753
C 1.0  		0.07988676056905394 		0.17592501717538522  0.9247817875267752 		Uiso   ? 		C 		0.52753
C 1.0  		0.19535466056046355 		0.7260280694867014  0.6960844195871907 		Uiso   ? 		C 		0.52753
C 1.0  		0.25072040247611505 		0.5120718421827462  0.9067674717752263 		Uiso   ? 		C 		0.52753
C 1.0  		0.37900059438228995 		0.06698400235548141  0.7039656827284932 		Uiso   ? 		C 		0.52753
C 1.0  		0.41219983450875797 		0.8354598095985867  0.9129598928148213 		Uiso   ? 		C 		0.52753
C 1.0  		0.5619816262465374 		0.20855824909215823  0.5452145251679694 		Uiso   ? 		C 		0.51263
C 1.0  		0.39897856626918315 		0.2573854156443223  0.7419646300169166 		Uiso   ? 		C 		0.51263
C 1.0  		0.7097501262600169 		0.5397978211797037  0.535925893608577 		Uiso   ? 		C 		0.51263
C 1.0  		0.55012699264828 		0.5788104818922367  0.7412609458078717 		Uiso   ? 		C 		0.51263
C 1.0  		0.899729098283449 		-0.12145450976543332  0.5335333672978245 		Uiso   ? 		C 		0.51263
C 1.0  		0.7350882362573052 		0.9291883403670625  0.7408387352824448 		Uiso   ? 		C 		0.51263
C 1.0  		0.04101914123943547 		0.20316027088036118  0.5331111567723975 		Uiso   ? 		C 		0.51263
C 1.0  		0.8825446151312577 		0.2453626459907744  0.756741998406859 		Uiso   ? 		C 		0.51263
C 1.0  		0.22582251459818836 		0.5464226126214545  0.5287483146763193 		Uiso   ? 		C 		0.51263
C 1.0  		0.07207041416703688 		0.593777603297674  0.7488607352655563 		Uiso   ? 		C 		0.51263
C 1.0  		0.3724641232742142 		-0.13053292766709199  0.5269187357328027 		Uiso   ? 		C 		0.51263
C 1.0  		0.20841674365081947 		0.9115222298557268  0.7411202089660627 		Uiso   ? 		C 		0.51263
C 1.0  		0.3862791335595497 		0.2375110413190696  0.5771617882586068 		Uiso   ? 		C 		0.50968
C 1.0  		0.2322310953605195 		0.1678280498576897  0.7674379983843411 		Uiso   ? 		C 		0.50968
C 1.0  		0.556661402253408 		0.5685052507606243  0.581383893512876 		Uiso   ? 		C 		0.50968
C 1.0  		0.37883621533009537 		0.49121601727353026  0.767156524700723 		Uiso   ? 		C 		0.50968
C 1.0  		0.7236197564674096 		0.9007262734321327  0.5850430513999094 		Uiso   ? 		C 		0.50968
C 1.0  		0.5652672948997316 		0.8381587987044853  0.7696897878532847 		Uiso   ? 		C 		0.50968
C 1.0  		0.8866911682496329 		0.23113161252330947  0.5860282092925722 		Uiso   ? 		C 		0.50968
C 1.0  		0.7268864659670399 		0.17543429188340368  0.7764451562601156 		Uiso   ? 		C 		0.50968
C 1.0  		0.05368836672656324 		0.5667877122386888  0.5840578935072466 		Uiso   ? 		C 		0.50968
C 1.0  		0.9133962371813176 		0.5140347433506723  0.784889366768654 		Uiso   ? 		C 		0.50968
C 1.0  		0.22063144684082833 		0.9019530866620866  0.5789913672021234 		Uiso   ? 		C 		0.50968
C 1.0  		0.04341965871191994 		0.8258906664049466  0.7803857878307667 		Uiso   ? 		C 		0.50968
C 1.0  		0.3761140815001562 		-0.004661890273824713  0.6075609460893454 		Uiso   ? 		C 		0.50811
C 1.0  		0.40457291280349916 		0.875453920895083  0.8204957877463247 		Uiso   ? 		C 		0.50811
C 1.0  		0.5661991609676745 		0.3444891549710472  0.6130496829198954 		Uiso   ? 		C 		0.50811
C 1.0  		0.5724834551041331 		0.20831288644616744  0.8145848403903477 		Uiso   ? 		C 		0.50811
C 1.0  		0.7064929933122696 		0.6624791441750909  0.6091090513492442 		Uiso   ? 		C 		0.50811
C 1.0  		0.7410847896287542 		0.5412699970556483  0.8127552614468311 		Uiso   ? 		C 		0.50811
C 1.0  		0.9022379140031022 		0.012758857591520267  0.6157236829142659 		Uiso   ? 		C 		0.50811
C 1.0  		0.9109545887104643 		0.8788889979389538  0.830065892989335 		Uiso   ? 		C 		0.50811
C 1.0  		0.03347933549966528 		0.32535086858376683  0.6093905250328621 		Uiso   ? 		C 		0.50811
C 1.0  		0.07688415806391681 		0.21199332613602906  0.8220438930062234 		Uiso   ? 		C 		0.50811
C 1.0  		0.23347923789891864 		0.6781823535185003  0.6122052618690416 		Uiso   ? 		C 		0.50811
C 1.0  		0.2354063229296422 		0.5388163705957406  0.819088419328235 		Uiso   ? 		C 		0.50811
C 1.0  		0.052116773645739606 		0.20070664442045344  0.6618853670276098 		Uiso   ? 		C 		0.51232
C 1.0  		0.07141666330329893 		0.9758072431053096  0.8753831560518249 		Uiso   ? 		C 		0.51232
C 1.0  		0.21142316050991866 		0.5265482382962018  0.6597743144004751 		Uiso   ? 		C 		0.51232
C 1.0  		0.24128776060006718 		0.30621258219648645  0.8518801034697261 		Uiso   ? 		C 		0.51232
C 1.0  		0.3816040578002547 		0.865639415055452  0.6647001038637892 		Uiso   ? 		C 		0.51232
C 1.0  		0.3999414028475212 		0.6349985278241241  0.8439988403284235 		Uiso   ? 		C 		0.51232
C 1.0  		0.5499067111001155 		0.19800765531455494  0.6645593670219804 		Uiso   ? 		C 		0.51232
C 1.0  		0.5755484365821285 		0.9726175287074297  0.85821326135113 		Uiso   ? 		C 		0.51232
C 1.0  		0.7199079875635543 		0.5375895573657866  0.6579447354569584 		Uiso   ? 		C 		0.51232
C 1.0  		0.7444732862992415 		0.30793012071842185  0.8651093665997698 		Uiso   ? 		C 		0.51232
C 1.0  		0.8823054401223391 		0.8683384041613506  0.6599150512422841 		Uiso   ? 		C 		0.51232
C 1.0  		0.9195414575531569 		0.647021297477672  0.8700351560630839 		Uiso   ? 		C 		0.51232
C 1.0  		0.5528188702467917 		0.452448719206988  0.6924252617001574 		Uiso   ? 		C 		0.51036
C 1.0  		0.5997243510915826 		0.23432132692118954  0.8945233665378456 		Uiso   ? 		C 		0.51036
C 1.0  		0.7186073679400011 		0.7814800274806164  0.6874994722368432 		Uiso   ? 		C 		0.51036
C 1.0  		0.7686631766933737 		0.5739032289724213  0.8977603138994519 		Uiso   ? 		C 		0.51036
C 1.0  		0.894432832353915 		0.12464422416331339  0.7026990511522125 		Uiso   ? 		C 		0.51036
C 1.0  		0.9429600789026122 		0.9046520757679851  0.9273150506793368 		Uiso   ? 		C 		0.51036
C 1.0  		0.04683810296190127 		0.450240455393071  0.6993213669487972 		Uiso   ? 		C 		0.51036
C 1.0  		0.08481019894600407 		0.23039552458533713  0.9129598928148213 		Uiso   ? 		C 		0.51036
C 1.0  		0.2148853009060941 		0.7876140936303858  0.6917215774911125 		Uiso   ? 		C 		0.51036
C 1.0  		0.2591006246783541 		0.5658062616547257  0.8928345244361379 		Uiso   ? 		C 		0.51036
C 1.0  		0.3824935426209498 		0.120718421827461  0.6910178932820676 		Uiso   ? 		C 		0.51036
C 1.0  		0.41919123354098686 		0.890666404946511  0.9019824191537212 		Uiso   ? 		C 		0.51036
C 1.0  		0.49104498552087705 		0.10280694867013446  0.5388813672865655 		Uiso   ? 		C 		0.53842
C 1.0  		0.3285150493333505 		0.14918048876239082  0.7399943142315909 		Uiso   ? 		C 		0.53842
C 1.0  		0.6504546227132715 		0.44287957601334776  0.5601326303997208 		Uiso   ? 		C 		0.53842
C 1.0  		0.4833197967562888 		0.4791932476199824  0.7174764195421549 		Uiso   ? 		C 		0.53842
C 1.0  		0.828902720332804 		0.7721562469329669  0.536488840975813 		Uiso   ? 		C 		0.53842
C 1.0  		0.6693564441807388 		0.8202473255471587  0.7366166300281756 		Uiso   ? 		C 		0.53842
C 1.0  		-0.018832820033697774 		0.10427912454607911  0.5583030514562041 		Uiso   ? 		C 		0.53842
C 1.0  		0.827737798071976 		0.15359701639022477  0.7256391563670754 		Uiso   ? 		C 		0.53842
C 1.0  		0.15154297218327203 		0.4399352242614585  0.5355036830831502 		Uiso   ? 		C 		0.53842
C 1.0  		0.005554400092016548 		0.48581803906173326  0.756741998406859 		Uiso   ? 		C 		0.53842
C 1.0  		0.3079249612259657 		0.7697026204730593  0.5512662093657553 		Uiso   ? 		C 		0.53842
C 1.0  		0.1464968217224074 		0.8119049955834725  0.716631998491301 		Uiso   ? 		C 		0.53842
C 1.0  		0.3080280165612367 		0.13200510354303663  0.581383893512876 		Uiso   ? 		C 		0.53556
C 1.0  		0.16052550673614177 		0.060113848267739724  0.768141682593386 		Uiso   ? 		C 		0.53556
C 1.0  		0.5011249831177297 		0.47060555501030527  0.553799472518317 		Uiso   ? 		C 		0.53556
C 1.0  		0.3161320714032296 		0.392580233585239  0.7915039983336758 		Uiso   ? 		C 		0.53556
C 1.0  		0.6410794902001853 		0.799391500637943  0.5833542092982016 		Uiso   ? 		C 		0.53556
C 1.0  		0.4984161108935009 		0.7299538718225538  0.7665935773334872 		Uiso   ? 		C 		0.53556
C 1.0  		0.8331481734555212 		0.1312690156050643  0.5618214725014284 		Uiso   ? 		C 		0.53556
C 1.0  		0.6594723477575328 		0.0699283541073707  0.79094105096644 		Uiso   ? 		C 		0.53556
C 1.0  		-0.018391737651345608 		0.4629993129845913  0.5937687355920659 		Uiso   ? 		C 		0.53556
C 1.0  		0.8404485768683949 		0.40681126705270393  0.7834819983505642 		Uiso   ? 		C 		0.53556
C 1.0  		0.1612590858344113 		0.7959564235940721  0.5633695777613272 		Uiso   ? 		C 		0.53556
C 1.0  		-0.006745243901544129 		0.7336343115124154  0.8114886298705503 		Uiso   ? 		C 		0.53556
C 1.0  		0.4953764023780471 		0.23726567867307882  0.6176939986995916 		Uiso   ? 		C 		0.53744
C 1.0  		0.511216277792446 		0.10575130042202376  0.7954446299043271 		Uiso   ? 		C 		0.53744
C 1.0  		0.6424833601519537 		0.5697320639905782  0.6388045249709378 		Uiso   ? 		C 		0.53744
C 1.0  		0.6698699200399001 		0.43453724604966143  0.8157107351248195 		Uiso   ? 		C 		0.53744
C 1.0  		0.827374222778196 		0.9063696142899206  0.6099534724000979 		Uiso   ? 		C 		0.53744
C 1.0  		0.8555713975331397 		0.7753459613308471  0.8109256825033143 		Uiso   ? 		C 		0.53744
C 1.0  		-0.022584827347897726 		0.23702031602708803  0.6435895775924431 		Uiso   ? 		C 		0.53744
C 1.0  		0.008024275616383157 		0.10869565217391305  0.8372434719215927 		Uiso   ? 		C 		0.53744
C 1.0  		0.1629916492405017 		0.5712042398665227  0.6109386302927609 		Uiso   ? 		C 		0.53744
C 1.0  		0.17479421138063944 		0.4396898616154677  0.7958668404297541 		Uiso   ? 		C 		0.53744
C 1.0  		0.31327716197650335 		0.9019530866620866  0.6373971565528481 		Uiso   ? 		C 		0.53744
C 1.0  		0.3271236130493356 		0.7724016095789578  0.8203550509045157 		Uiso   ? 		C 		0.53744
C 1.0  		0.15597655178768907 		0.4284031798998921  0.632752840773152 		Uiso   ? 		C 		0.53706
C 1.0  		0.17573558935039796 		0.19678084208460106  0.8479394718990748 		Uiso   ? 		C 		0.53706
C 1.0  		0.302454836667455 		0.7625871037393268  0.6704703143779572 		Uiso   ? 		C 		0.53706
C 1.0  		0.34268746708751097 		0.5336637550299342  0.8663759981760505 		Uiso   ? 		C 		0.53706
C 1.0  		0.4885913903432599 		0.09789969575031898  0.6385230512873199 		Uiso   ? 		C 		0.53706
C 1.0  		0.5162811600888966 		0.8634311512415351  0.8515986297861082 		Uiso   ? 		C 		0.53706
C 1.0  		0.644966902909065 		0.43232898223574445  0.6624483143948456 		Uiso   ? 		C 		0.53706
C 1.0  		0.6785378016731933 		0.20070664442045344  0.8646871560743429 		Uiso   ? 		C 		0.53706
C 1.0  		0.8284120012972807 		0.7711747963490039  0.6347231565584776 		Uiso   ? 		C 		0.53706
C 1.0  		0.8546026850978918 		0.5388163705957406  0.8675018929105223 		Uiso   ? 		C 		0.53706
C 1.0  		-0.02435988566022492 		0.09789969575031898  0.672159156479665 		Uiso   ? 		C 		0.53706
C 1.0  		0.015943661712525647 		0.8725095691431938  0.8933974718033737 		Uiso   ? 		C 		0.53706
C 1.0  		0.4823641509338068 		0.3459613308469919  0.6915808406493035 		Uiso   ? 		C 		0.53967
C 1.0  		0.5283868017438474 		0.1273432132692119  0.8988862086339238 		Uiso   ? 		C 		0.53967
C 1.0  		0.6559032240131353 		0.6828442437923251  0.7131135774460767 		Uiso   ? 		C 		0.53967
C 1.0  		0.6994593266917819 		0.4686426538423791  0.9104266296622597 		Uiso   ? 		C 		0.53967
C 1.0  		0.8216166494227211 		0.019383649033271177  0.6952399985363369 		Uiso   ? 		C 		0.53967
C 1.0  		0.8702906474528835 		0.7984100500539798  0.9192930506962251 		Uiso   ? 		C 		0.53967
C 1.0  		-0.0014736503145729996 		0.352340759642752  0.727890945836019 		Uiso   ? 		C 		0.53967
C 1.0  		0.03157182588362996 		0.13666699381686134  0.9457515769563124 		Uiso   ? 		C 		0.53967
C 1.0  		0.13871094218590785 		0.6845617823142606  0.6855291564515177 		Uiso   ? 		C 		0.53967
C 1.0  		0.19223416657238696 		0.46054568652468353  0.9078933665096981 		Uiso   ? 		C 		0.53967
C 1.0  		0.3233271953099738 		0.019383649033271177  0.7159283142822561 		Uiso   ? 		C 		0.53967
C 1.0  		0.3553565789156497 		0.7846697418784965  0.9140857875492931 		Uiso   ? 		C 		0.53967
C 1.0  		0.5082863774160514 		0.1619393463539111  0.5318445251961168 		Uiso   ? 		C 		0.49916
C 1.0  		0.3424704806072853 		0.2068407105702228  0.7504088405254551 		Uiso   ? 		C 		0.49916
C 1.0  		0.6572006622277387 		0.49759544606929046  0.5522513672584182 		Uiso   ? 		C 		0.49916
C 1.0  		0.4927471957204391 		0.5358720188438513  0.7276094721524011 		Uiso   ? 		C 		0.49916
C 1.0  		0.8441659619861483 		0.8303071940327805  0.524807683105668 		Uiso   ? 		C 		0.49916
C 1.0  		0.6777542616286736 		0.8774168220630092  0.7444978931694781 		Uiso   ? 		C 		0.49916
C 1.0  		-0.01281406144966779 		0.15924035724801258  0.547325577795104 		Uiso   ? 		C 		0.49916
C 1.0  		0.8331190861390174 		0.20855824909215823  0.7370388405536025 		Uiso   ? 		C 		0.49916
C 1.0  		0.16874269711016632 		0.4968593581313181  0.5217114725858706 		Uiso   ? 		C 		0.49916
C 1.0  		0.021921759575288524 		0.5461772499754638  0.7649047352317795 		Uiso   ? 		C 		0.49916
C 1.0  		0.31573345160208055 		0.8244184905290018  0.5371925251848578 		Uiso   ? 		C 		0.49916
C 1.0  		0.1563579986540647 		0.8703013053292767  0.7216985247964242 		Uiso   ? 		C 		0.49916
C 1.0  		0.32522126501124243 		0.193591127686721  0.581946840880112 		Uiso   ? 		C 		0.49868
C 1.0  		0.17555218649457216 		0.11949160859750713  0.7604011562938923 		Uiso   ? 		C 		0.49868
C 1.0  		0.5077900098415962 		0.5272843262341742  0.5629473672359003 		Uiso   ? 		C 		0.49868
C 1.0  		0.3259603789894547 		0.4504858180390618  0.7834819983505642 		Uiso   ? 		C 		0.49868
C 1.0  		0.6622114438881554 		0.8595053489056826  0.5896873671796056 		Uiso   ? 		C 		0.49868
C 1.0  		0.5072148369635107 		0.7883501815683581  0.7639195773391166 		Uiso   ? 		C 		0.49868
C 1.0  		0.8362818800403864 		0.185984885661007  0.5695619988009221 		Uiso   ? 		C 		0.49868
C 1.0  		0.6682053351366781 		0.1273432132692119  0.7817931562488565 		Uiso   ? 		C 		0.49868
C 1.0  		-0.00032445678943743284 		0.5233585238983217  0.5963019987446274 		Uiso   ? 		C 		0.49868
C 1.0  		0.8583843803485742 		0.4652075767985082  0.773348945740318 		Uiso   ? 		C 		0.49868
C 1.0  		0.16564366173066936 		0.8518991068799686  0.5673102093319785 		Uiso   ? 		C 		0.49868
C 1.0  		-0.0021241061103721703 		0.7883501815683581  0.8031851562038207 		Uiso   ? 		C 		0.49868
C 1.0  		0.5109331469943217 		0.29345372460496616  0.6039017882023121 		Uiso   ? 		C 		0.49686
C 1.0  		0.5163850756871579 		0.16071253312395722  0.8027629456783938 		Uiso   ? 		C 		0.49686
C 1.0  		0.6526292424236935 		0.6244479340465208  0.6269826302589839 		Uiso   ? 		C 		0.49686
C 1.0  		0.6814310183501937 		0.4929335557954657  0.8162736824920553 		Uiso   ? 		C 		0.49686
C 1.0  		0.8458993533301954 		0.9672195504956327  0.6050276829367839 		Uiso   ? 		C 		0.49686
C 1.0  		0.860805934118716 		0.8312886446167436  0.8135996824976849 		Uiso   ? 		C 		0.49686
C 1.0  		-0.015389735766187157 		0.2905093728530769  0.6316269460386802 		Uiso   ? 		C 		0.49686
C 1.0  		0.02612442582372352 		0.16954558837962508  0.8400582087577723 		Uiso   ? 		C 		0.49686
C 1.0  		0.18101726313412977 		0.6293551869663363  0.5993982092644249 		Uiso   ? 		C 		0.49686
C 1.0  		0.18334757793288736 		0.49759544606929046  0.8009333667348771 		Uiso   ? 		C 		0.49686
C 1.0  		0.3226059529043571 		0.9571596820100108  0.6251530513154673 		Uiso   ? 		C 		0.49686
C 1.0  		0.3430988615333807 		0.8332515457846698  0.8204957877463247 		Uiso   ? 		C 		0.49686
C 1.0  		0.4954360378940237 		0.15408774168220632  0.649078314422993 		Uiso   ? 		C 		0.50190
C 1.0  		0.5243526052284688 		0.9220728236333301  0.8458284192719402 		Uiso   ? 		C 		0.50190
C 1.0  		0.6644887456318477 		0.49219746785749335  0.6703295775361483 		Uiso   ? 		C 		0.50190
C 1.0  		0.6876629000515654 		0.2576307782903131  0.8584947350347479 		Uiso   ? 		C 		0.50190
C 1.0  		0.8334011783650952 		0.826626754342919  0.6390859986545558 		Uiso   ? 		C 		0.50190
C 1.0  		0.8685011753038101 		0.5972126803415448  0.8576503139838941 		Uiso   ? 		C 		0.50190
C 1.0  		-0.002099742419742631 		0.1589949946020218  0.6765219985757432 		Uiso   ? 		C 		0.50190
C 1.0  		0.019747708159811694 		0.9277161644911179  0.8884716823400596 		Uiso   ? 		C 		0.50190
C 1.0  		0.15785059143831354 		0.4801746982039455  0.6455598933777686 		Uiso   ? 		C 		0.50190
C 1.0  		0.1872638183152593 		0.2546864265384238  0.8400582087577723 		Uiso   ? 		C 		0.50190
C 1.0  		0.32228777759886373 		0.8239277652370204  0.6734257880559458 		Uiso   ? 		C 		0.50190
C 1.0  		0.3477993239142064 		0.5893610756698401  0.8600428402946466 		Uiso   ? 		C 		0.50190
C 1.0  		0.4976033208645667 		0.40533909117675926  0.6836995775080008 		Uiso   ? 		C 		0.49861
C 1.0  		0.5401363185038862 		0.18696633624497008  0.8928345244361379 		Uiso   ? 		C 		0.49861
C 1.0  		0.6627960150090677 		0.7365786632643047  0.700447261683269 		Uiso   ? 		C 		0.49861
C 1.0  		0.7091978238645582 		0.5267936009421925  0.9032490507300021 		Uiso   ? 		C 		0.49861
C 1.0  		0.8408121198371412 		0.08072431053096478  0.6900327353894047 		Uiso   ? 		C 		0.49861
C 1.0  		0.8872056670396953 		0.8590146236137011  0.914367261232911 		Uiso   ? 		C 		0.49861
C 1.0  		-0.0016587736963794564 		0.4050937285307685  0.7195874721692896 		Uiso   ? 		C 		0.49861
C 1.0  		0.03445137532788557 		0.18917460005888706  0.9323815769844599 		Uiso   ? 		C 		0.49861
C 1.0  		0.16351216987149658 		0.743939542644028  0.6755368406830803 		Uiso   ? 		C 		0.49861
C 1.0  		0.20177544767257027 		0.5157522818726077  0.8929752612779468 		Uiso   ? 		C 		0.49861
C 1.0  		0.32913346372167424 		0.07434488173520463  0.7048101037793472 		Uiso   ? 		C 		0.49861
C 1.0  		0.36336228536435766 		0.8423299636863284  0.9100044191368328 		Uiso   ? 		C 		0.49861
C 1.0  		0.5240074687594869 		0.22058101874570618  0.525229893631095 		Uiso   ? 		C 		0.57004
C 1.0  		0.35296912805593117 		0.2652370203160271  0.756460524723241 		Uiso   ? 		C 		0.57004
C 1.0  		0.6604153816032047 		0.5503484149573069  0.5398665251792284 		Uiso   ? 		C 		0.57004
C 1.0  		0.5038087773723612 		0.591569339483757  0.7406979984406358 		Uiso   ? 		C 		0.57004
C 1.0  		0.855248758244784 		-0.11139464127981158  0.5188967357496911 		Uiso   ? 		C 		0.57004
C 1.0  		0.688187170386455 		0.9348316812248504  0.7544902089379153 		Uiso   ? 		C 		0.57004
C 1.0  		-0.008716512039451507 		0.2124840514280106  0.5349407357159143 		Uiso   ? 		C 		0.57004
C 1.0  		0.8389494262733022 		0.2622926685641378  0.7467496826384218 		Uiso   ? 		C 		0.57004
C 1.0  		0.18200371679909605 		0.5552556678771224  0.5124228410264783 		Uiso   ? 		C 		0.57004
C 1.0  		0.036074406921816404 		0.6067818235351851  0.7703934720623296 		Uiso   ? 		C 		0.57004
C 1.0  		0.325499639858459 		-0.11949160859750713  0.5256521041565219 		Uiso   ? 		C 		0.57004
C 1.0  		0.16137124744446352 		0.9245264500932379  0.7343648405592319 		Uiso   ? 		C 		0.57004
C 1.0  		0.34708049962964993 		0.25345961330846994  0.5913762092813133 		Uiso   ? 		C 		0.57102
C 1.0  		0.18880440856065403 		0.176170379821376  0.7511125247345 		Uiso   ? 		C 		0.57102
C 1.0  		0.5066803894567594 		0.5773383060162922  0.5775839987840337 		Uiso   ? 		C 		0.57102
C 1.0  		0.33087501974355693 		0.5032387869270784  0.7708156825877566 		Uiso   ? 		C 		0.57102
C 1.0  		0.6873390438821068 		0.9174109333595054  0.6039017882023121 		Uiso   ? 		C 		0.57102
C 1.0  		0.5199610658943327 		0.8469918539601532  0.7549124194633423 		Uiso   ? 		C 		0.57102
C 1.0  		0.8347713510334747 		0.23481205221317109  0.5856059987671453 		Uiso   ? 		C 		0.57102
C 1.0  		0.6765286162709007 		0.18181372067916382  0.7699712615369027 		Uiso   ? 		C 		0.57102
C 1.0  		0.017955314244800347 		0.5837177348120522  0.6039017882023121 		Uiso   ? 		C 		0.57102
C 1.0  		0.8714657792106066 		0.5240946118362941  0.7665935773334872 		Uiso   ? 		C 		0.57102
C 1.0  		0.16779593024448763 		0.9046520757679851  0.5795543145693594 		Uiso   ? 		C 		0.57102
C 1.0  		0.0002647242983599418 		0.8398763372264207  0.7899558930737771 		Uiso   ? 		C 		0.57102
C 1.0  		0.3303194546051931 		0.009569143193640202  0.60967199871648 		Uiso   ? 		C 		0.57151
C 1.0  		0.36406646849419 		0.8909117675925018  0.8337250508763684 		Uiso   ? 		C 		0.57151
C 1.0  		0.523745114616008 		0.35307684758072433  0.5964427355864365 		Uiso   ? 		C 		0.57151
C 1.0  		0.5212099060278115 		0.2137108646579645  0.8155699982830106 		Uiso   ? 		C 		0.57151
C 1.0  		0.6625955038685358 		0.679654529394445  0.6143163144961762 		Uiso   ? 		C 		0.57151
C 1.0  		0.6962364103134466 		0.5505937776032978  0.8266882087859195 		Uiso   ? 		C 		0.57151
C 1.0  		0.8612976917262861 		0.026499165767003632  0.6002426303152787 		Uiso   ? 		C 		0.57151
C 1.0  		0.8617818696348536 		0.8855137893807048  0.8216216824807965 		Uiso   ? 		C 		0.57151
C 1.0  		-0.006150755251782075 		0.3459613308469919  0.6186791565922544 		Uiso   ? 		C 		0.57151
C 1.0  		0.04759154944290418 		0.2299047992933556  0.8458284192719402 		Uiso   ? 		C 		0.57151
C 1.0  		0.19096825047923574 		0.6875061340661498  0.5964427355864365 		Uiso   ? 		C 		0.57151
C 1.0  		0.1850572708563509 		0.5469133379134361  0.8175403140683363 		Uiso   ? 		C 		0.57151
C 1.0  		0.5000395804394998 		0.20536853469427815  0.6642778933383623 		Uiso   ? 		C 		0.57035
C 1.0  		0.5277075996085115 		0.9785062322112082  0.8465321034809851 		Uiso   ? 		C 		0.57035
C 1.0  		0.6846239871490347 		0.5532927667091962  0.6790552617283048 		Uiso   ? 		C 		0.57035
C 1.0  		0.6974254689469261 		0.3145549121601728  0.8513171561024903 		Uiso   ? 		C 		0.57035
C 1.0  		0.8288324530090099 		0.871037393267249  0.6585076828241944 		Uiso   ? 		C 		0.57035
C 1.0  		0.8744717904426716 		0.6546275395033861  0.8528652613623888 		Uiso   ? 		C 		0.57035
C 1.0  		0.02107610020092214 		0.22107174403768773  0.6808848406718214 		Uiso   ? 		C 		0.57035
C 1.0  		0.01935009460567555 		0.9804691333791344  0.881153366565993 		Uiso   ? 		C 		0.57035
C 1.0  		0.1599042519158353 		0.5314554912160173  0.6585076828241944 		Uiso   ? 		C 		0.57035
C 1.0  		0.1924085444873868 		0.31087447247031114  0.8421692613849068 		Uiso   ? 		C 		0.57035
C 1.0  		0.34788202490575415 		0.8840416135047602  0.6842625248752369 		Uiso   ? 		C 		0.57035
C 1.0  		0.35053212187699684 		0.6428501324958289  0.8487838929499286 		Uiso   ? 		C 		0.57035
C 1.0  		0.5126300006229971 		0.46471685150652664  0.6760997880503162 		Uiso   ? 		C 		0.56779
C 1.0  		0.5535200179516969 		0.24560800863676513  0.8855162086620711 		Uiso   ? 		C 		0.56779
C 1.0  		0.6704248845582852 		0.7917852586122289  0.6874994722368432 		Uiso   ? 		C 		0.56779
C 1.0  		0.7183206010969709 		0.5773383060162922  0.886782840238352 		Uiso   ? 		C 		0.56779
C 1.0  		0.8592057730074119 		0.1396113455687506  0.6817292617226753 		Uiso   ? 		C 		0.56779
C 1.0  		0.9086158495908595 		0.9201099224654039  0.9062045244079905 		Uiso   ? 		C 		0.56779
C 1.0  		-0.0032503154938919032 		0.45588379625085884  0.7072026300900998 		Uiso   ? 		C 		0.56779
C 1.0  		0.035032878698837006 		0.2375110413190696  0.9153524191255739 		Uiso   ? 		C 		0.56779
C 1.0  		0.18099892128443262 		0.8035626656197861  0.6714554722706201 		Uiso   ? 		C 		0.56779
C 1.0  		0.21027834963369024 		0.5697320639905782  0.8781978928880044 		Uiso   ? 		C 		0.56779
C 1.0  		0.33030429416444573 		0.12513494945529494  0.6915808406493035 		Uiso   ? 		C 		0.56779
C 1.0  		0.3697819525704624 		0.8985180096182158  0.9035305244136199 		Uiso   ? 		C 		0.56779
N 1.0  		0.1467598411359322 		-0.03754048483658848  0.5198818936423539 		Uiso   ? 		N 		-0.43410
N 1.0  		-0.004727082567347347 		0.013494945529492592  0.7577271562995218 		Uiso   ? 		N 		-0.43410
N 1.0  		0.3004539942520542 		0.2949259004809108  0.5428219988572169 		Uiso   ? 		N 		-0.43410
N 1.0  		0.1310410386134225 		0.33688291294533323  0.7186023142766267 		Uiso   ? 		N 		-0.43410
N 1.0  		0.4893428243302369 		0.6357346157620964  0.5256521041565219 		Uiso   ? 		N 		-0.43410
N 1.0  		0.31955950826900315 		0.6705761114927864  0.7504088405254551 		Uiso   ? 		N 		-0.43410
N 1.0  		0.6352025321537682 		-0.033860045146726865  0.5605548409251477 		Uiso   ? 		N 		-0.43410
N 1.0  		0.4734720920644318 		0.008587692609677105  0.7259206300506935 		Uiso   ? 		N 		-0.43410
N 1.0  		0.8187920608774896 		0.2976248895868093  0.5234003146875783 		Uiso   ? 		N 		-0.43410
N 1.0  		0.6549149684882328 		0.34767886936892733  0.7490014721073653 		Uiso   ? 		N 		-0.43410
N 1.0  		-0.03323856926490065 		0.6283737363823731  0.5623844198686644 		Uiso   ? 		N 		-0.43410
N 1.0  		0.8148588258694005 		0.6735204632446757  0.7250762089998396 		Uiso   ? 		N 		-0.43410
N 1.0  		0.6387258826078783 		0.3280498576896653  0.5964427355864365 		Uiso   ? 		N 		-0.43509
N 1.0  		0.48798787675267186 		0.2586122288742762  0.7606826299775103 		Uiso   ? 		N 		-0.43509
N 1.0  		0.8160851364972195 		0.6521739130434783  0.5597104198742938 		Uiso   ? 		N 		-0.43509
N 1.0  		0.6468387350727192 		0.5903425262538032  0.7836227351923731 		Uiso   ? 		N 		-0.43509
N 1.0  		-0.026670998346295074 		-0.009569143193640202  0.593065051383021 		Uiso   ? 		N 		-0.43509
N 1.0  		0.8315018334268953 		0.929924428305035  0.7665935773334872 		Uiso   ? 		N 		-0.43509
N 1.0  		0.14580330272542633 		0.32093434095593293  0.558584525139822 		Uiso   ? 		N 		-0.43509
N 1.0  		0.9765268546608451 		0.2573854156443223  0.8100812614524605 		Uiso   ? 		N 		-0.43509
N 1.0  		0.29794013061344815 		0.663460594759054  0.5896873671796056 		Uiso   ? 		N 		-0.43509
N 1.0  		0.15798865895591974 		0.5900971636078124  0.762230735237409 		Uiso   ? 		N 		-0.43509
N 1.0  		0.48799779428152174 		-0.00613406614976936  0.5602733672415298 		Uiso   ? 		N 		-0.43509
N 1.0  		0.30086988500582 		0.9213367356953578  0.790518840441013 		Uiso   ? 		N 		-0.43509
N 1.0  		0.14815574140280954 		0.09274708018451272  0.6031981039932671 		Uiso   ? 		N 		-0.43565
N 1.0  		0.15795893869440364 		0.9576504073019925  0.7985408404241247 		Uiso   ? 		N 		-0.43565
N 1.0  		0.29671726103759066 		0.4247227402100305  0.6299381039369725 		Uiso   ? 		N 		-0.43565
N 1.0  		0.32024612847817324 		0.2890371969771322  0.8223253666898414 		Uiso   ? 		N 		-0.43565
N 1.0  		0.47966052162147554 		0.7544901364216313  0.6107978934509518 		Uiso   ? 		N 		-0.43565
N 1.0  		0.4995793772784155 		0.6251840219844932  0.7929113667517657 		Uiso   ? 		N 		-0.43565
N 1.0  		0.6349684050638028 		0.08636765138875258  0.6344416828748596 		Uiso   ? 		N 		-0.43565
N 1.0  		0.6578191579500179 		0.9620669349298263  0.8165551561756733 		Uiso   ? 		N 		-0.43565
N 1.0  		0.8268737645228789 		0.42938463048385517  0.6061535776712557 		Uiso   ? 		N 		-0.43565
N 1.0  		0.8358963591770371 		0.29443517518892925  0.8090961035597977 		Uiso   ? 		N 		-0.43565
N 1.0  		0.9676300888494839 		0.7606242025714006  0.6400711565472187 		Uiso   ? 		N 		-0.43565
N 1.0  		0.994659728229595 		0.6327902640102072  0.8423099982267158 		Uiso   ? 		N 		-0.43565
N 1.0  		0.30105627427765125 		0.2880557463931691  0.6673741038581598 		Uiso   ? 		N 		-0.43756
N 1.0  		0.3301144148317314 		0.05250760624202572  0.8676426297523313 		Uiso   ? 		N 		-0.43756
N 1.0  		0.4756402029729315 		0.6215035822946315  0.6364119986601853 		Uiso   ? 		N 		-0.43756
N 1.0  		0.4974232130766797 		0.3820296398076357  0.8451247350628953 		Uiso   ? 		N 		-0.43756
N 1.0  		0.6299958983286265 		0.9527431543821769  0.6675148406999688 		Uiso   ? 		N 		-0.43756
N 1.0  		0.6629381241986141 		0.7228383550888213  0.8590576824019839 		Uiso   ? 		N 		-0.43756
N 1.0  		0.8141783734851854 		0.2858474825792522  0.6458413670613866 		Uiso   ? 		N 		-0.43756
N 1.0  		0.8463539726024152 		0.0603592109137305  0.8570873666166582 		Uiso   ? 		N 		-0.43756
N 1.0  		-0.02468202130370295 		0.6276376484444008  0.6846847354006638 		Uiso   ? 		N 		-0.43756
N 1.0  		0.00941014469542159 		0.3911080577092944  0.8949455770632725 		Uiso   ? 		N 		-0.43756
N 1.0  		0.14207031921485752 		0.9551967808420846  0.6361305249765673 		Uiso   ? 		N 		-0.43756
N 1.0  		0.1633802055287781 		0.7181764648149966  0.841184103492244 		Uiso   ? 		N 		-0.43756
N 1.0  		0.13719617651411167 		0.20512317204828737  0.6803218933045855 		Uiso   ? 		N 		-0.43365
N 1.0  		0.17507899805467725 		0.9753165178133282  0.9026861033627661 		Uiso   ? 		N 		-0.43365
N 1.0  		0.306222491383392 		0.5380802826577682  0.7171949458585369 		Uiso   ? 		N 		-0.43365
N 1.0  		0.34215717491168884 		0.3116105604082835  0.9136635770238661 		Uiso   ? 		N 		-0.43365
N 1.0  		0.46911946060054827 		0.8715281185592306  0.6851069459260907 		Uiso   ? 		N 		-0.43365
N 1.0  		0.516644816716632 		0.6499656492295613  0.8860791560293071 		Uiso   ? 		N 		-0.43365
N 1.0  		0.6441560607240896 		0.20291490823437042  0.717054209016728 		Uiso   ? 		N 		-0.43365
N 1.0  		0.6863655431709175 		0.9821866719010699  0.9070489454588444 		Uiso   ? 		N 		-0.43365
N 1.0  		0.8136730946288935 		0.5368534694278144  0.6879216827622702 		Uiso   ? 		N 		-0.43365
N 1.0  		0.8656061244418402 		0.32240651683187754  0.9063452612497995 		Uiso   ? 		N 		-0.43365
N 1.0  		-0.018928798272101532 		0.8737363823731475  0.722402209005469 		Uiso   ? 		N 		-0.43365
N 1.0  		0.010412213437091311 		0.6519285503974875  0.9432183138037509 		Uiso   ? 		N 		-0.43365
N 1.0  		0.16226844230703813 		0.021101187555206596  0.5112969462920064 		Uiso   ? 		N 		-0.42683
N 1.0  		0.011966649224287081 		0.07238198056727844  0.768141682593386 		Uiso   ? 		N 		-0.42683
N 1.0  		0.3121618440438129 		0.352340759642752  0.5335333672978245 		Uiso   ? 		N 		-0.42683
N 1.0  		0.13775420878245756 		0.3911080577092944  0.7314093668812435 		Uiso   ? 		N 		-0.42683
N 1.0  		0.5018765630887293 		0.6943762881538915  0.5218522094276796 		Uiso   ? 		N 		-0.42683
N 1.0  		0.3327066458218999 		0.7304445971145354  0.756882735248668 		Uiso   ? 		N 		-0.42683
N 1.0  		0.6405662249751138 		0.017666110511335754  0.5447923146425425 		Uiso   ? 		N 		-0.42683
N 1.0  		0.48009545182001817 		0.06305820001962902  0.7376017879208383 		Uiso   ? 		N 		-0.42683
N 1.0  		0.8350038712564485 		0.3572480125625675  0.5150968410208487 		Uiso   ? 		N 		-0.42683
N 1.0  		0.6695648113471728 		0.40460300323878695  0.7601196826102743 		Uiso   ? 		N 		-0.42683
N 1.0  		-0.027040189853973273 		0.6828442437923251  0.5504217883149015 		Uiso   ? 		N 		-0.42683
N 1.0  		0.8218590225244773 		0.7304445971145354  0.7309871563558166 		Uiso   ? 		N 		-0.42683
N 1.0  		0.4880733045172134 		0.04416527627833939  0.5739248408970004 		Uiso   ? 		N 		-0.42877
N 1.0  		0.31148241459049897 		0.9782608695652175  0.7795413667799129 		Uiso   ? 		N 		-0.42877
N 1.0  		0.6587384443661845 		0.3888997938953774  0.5977093671627172 		Uiso   ? 		N 		-0.42877
N 1.0  		0.5029159484748057 		0.316517813328099  0.750971787892691 		Uiso   ? 		N 		-0.42877
N 1.0  		0.8175999344940492 		0.7049268819314949  0.570406419851776 		Uiso   ? 		N 		-0.42877
N 1.0  		0.6555781989287528 		0.6430954951418196  0.7682824194351948 		Uiso   ? 		N 		-0.42877
N 1.0  		-0.006870926760318467 		0.05128079301207184  0.597990840846335 		Uiso   ? 		N 		-0.42877
N 1.0  		0.8430753487210545 		-0.010795956423594072  0.7620899983956 		Uiso   ? 		N 		-0.42877
N 1.0  		0.14749772154915342 		0.3731965845519678  0.570406419851776 		Uiso   ? 		N 		-0.42877
N 1.0  		-0.0194529549480022 		0.30915693394837573  0.7948816825370911 		Uiso   ? 		N 		-0.42877
N 1.0  		0.322244162786625 		0.7265187947786829  0.5947538934847286 		Uiso   ? 		N 		-0.42877
N 1.0  		0.17346439078159354 		0.6482481107076259  0.7523791563107808 		Uiso   ? 		N 		-0.42877
N 1.0  		0.17036542005216387 		0.14991657670036315  0.5879985250778978 		Uiso   ? 		N 		-0.43010
N 1.0  		0.1596657745019964 		0.010795956423594072  0.8088146298761797 		Uiso   ? 		N 		-0.43010
N 1.0  		0.3056210716207854 		0.4799293355579547  0.6161458934396928 		Uiso   ? 		N 		-0.43010
N 1.0  		0.3348478278919446 		0.3484149573068996  0.8285177877294362 		Uiso   ? 		N 		-0.43010
N 1.0  		0.4911887505863368 		0.812395720875454  0.6008055776825146 		Uiso   ? 		N 		-0.43010
N 1.0  		0.5038653451383771 		0.679654529394445  0.8003704193676413 		Uiso   ? 		N 		-0.43010
N 1.0  		0.6429171704444944 		0.1447639611345569  0.6275455776262198 		Uiso   ? 		N 		-0.43010
N 1.0  		0.6705361368964254 		0.019383649033271177  0.8259845245768747 		Uiso   ? 		N 		-0.43010
N 1.0  		0.8438697969002915 		0.4880263028756503  0.5943316829593017 		Uiso   ? 		N 		-0.43010
N 1.0  		0.8401670529372621 		0.35185003435077045  0.8154292614412015 		Uiso   ? 		N 		-0.43010
N 1.0  		-0.028023348451000907 		0.8109235449995094  0.6216346302702429 		Uiso   ? 		N 		-0.43010
N 1.0  		0.016818440728429362 		0.6936402002159192  0.8492061034753555 		Uiso   ? 		N 		-0.43010
N 1.0  		0.32453441748409423 		0.34988713318284426  0.6753961038412715 		Uiso   ? 		N 		-0.42933
N 1.0  		0.3314824613470961 		0.1062420257140053  0.858353998192939 		Uiso   ? 		N 		-0.42933
N 1.0  		0.48037522290013646 		0.6747472764746295  0.6510486302083187 		Uiso   ? 		N 		-0.42933
N 1.0  		0.5039086189736489 		0.4391991363234862  0.8394952613905363 		Uiso   ? 		N 		-0.42933
N 1.0  		0.6505180725832101 		0.010795956423594072  0.6803218933045855 		Uiso   ? 		N 		-0.42933
N 1.0  		0.6725539416125096 		0.7807439395426441  0.8493468403171646 		Uiso   ? 		N 		-0.42933
N 1.0  		0.8191346812075678 		0.3408087152811856  0.6540041038863071 		Uiso   ? 		N 		-0.42933
N 1.0  		0.857939142635293 		0.11752870742958092  0.8483616824245017 		Uiso   ? 		N 		-0.42933
N 1.0  		-0.0032148976845222665 		0.6879968593581314  0.688203156445888 		Uiso   ? 		N 		-0.42933
N 1.0  		0.00938936804077603 		0.44631465305721857  0.8893161033909135 		Uiso   ? 		N 		-0.42933
N 1.0  		0.1422392592250156 		0.0044165276278339384  0.6503449459992738 		Uiso   ? 		N 		-0.42933
N 1.0  		0.16724999066692853 		0.774364510746884  0.846109892955558 		Uiso   ? 		N 		-0.42933
N 1.0  		0.15349779730651925 		0.2645009323780548  0.6727221038469009 		Uiso   ? 		N 		-0.42724
N 1.0  		0.1866349181031406 		0.031161056040828347  0.8895975770745314 		Uiso   ? 		N 		-0.42724
N 1.0  		0.3068039947543435 		0.5864167239179509  0.7028397879940215 		Uiso   ? 		N 		-0.42724
N 1.0  		0.3452251428056897 		0.3653449798802631  0.9049378928317097 		Uiso   ? 		N 		-0.42724
N 1.0  		0.48344293115112563 		0.929924428305035  0.6787737880446868 		Uiso   ? 		N 		-0.42724
N 1.0  		0.5251412422008634 		0.7086073216213564  0.8819977876168468 		Uiso   ? 		N 		-0.42724
N 1.0  		0.6472064333723946 		0.25321425066247916  0.7032619985194484 		Uiso   ? 		N 		-0.42724
N 1.0  		0.6941054377402971 		0.03974874865050545  0.903108313888193 		Uiso   ? 		N 		-0.42724
N 1.0  		0.8327611593841691 		0.5950044165276278  0.6773664196265969 		Uiso   ? 		N 		-0.42724
N 1.0  		0.8815156342350209 		0.3822750024536265  0.8993084191593507 		Uiso   ? 		N 		-0.42724
N 1.0  		-0.024216006935776135 		0.9201099224654039  0.7074841037737177 		Uiso   ? 		N 		-0.42724
N 1.0  		0.013740814948590307 		0.7032093434095594  0.9288631559392354 		Uiso   ? 		N 		-0.42724
N 1.0  		0.288533654287966 		0.2375110413190696  0.5512662093657553 		Uiso   ? 		N 		-0.40174
N 1.0  		0.11905495995846992 		0.27848660319952895  0.7128321037624588 		Uiso   ? 		N 		-0.40174
N 1.0  		0.475501275192335 		0.5766022180783198  0.5331111567723975 		Uiso   ? 		N 		-0.40174
N 1.0  		0.3065438480978351 		0.6126705270389636  0.7430905247513884 		Uiso   ? 		N 		-0.40174
N 1.0  		0.624140950501846 		-0.08955736578663265  0.5708286303772029 		Uiso   ? 		N 		-0.40174
N 1.0  		0.4629698252547682 		0.9510256158602415  0.717617156383964 		Uiso   ? 		N 		-0.40174
N 1.0  		0.8000873094985927 		0.23726567867307882  0.5325482094051617 		Uiso   ? 		N 		-0.40174
N 1.0  		0.643443680591388 		0.2890371969771322  0.7406979984406358 		Uiso   ? 		N 		-0.40174
N 1.0  		-0.045927857127706195 		0.5689959760526058  0.5692805251173042 		Uiso   ? 		N 		-0.40174
N 1.0  		0.8092321782845975 		0.6180685052507607  0.7188837879602447 		Uiso   ? 		N 		-0.40174
N 1.0  		0.1320683313087122 		-0.09667288252036511  0.5298742094107912 		Uiso   ? 		N 		-0.40174
N 1.0  		-0.01754266955005146 		0.9547060555501031  0.7522384194689717 		Uiso   ? 		N 		-0.40174
N 1.0  		0.6255130063641171 		0.2671999214839533  0.6002426303152787 		Uiso   ? 		N 		-0.40159
N 1.0  		0.4745143668914126 		0.2002159191284719  0.7665935773334872 		Uiso   ? 		N 		-0.40159
N 1.0  		0.808291920220841 		0.5945136912356463  0.5597104198742938 		Uiso   ? 		N 		-0.40159
N 1.0  		0.6366511858326993 		0.5334183923839435  0.7926298930681476 		Uiso   ? 		N 		-0.40159
N 1.0  		-0.04232349388299533 		0.9289429777210718  0.5901095777050325 		Uiso   ? 		N 		-0.40159
N 1.0  		0.818731532773489 		0.8725095691431938  0.7709564194295654 		Uiso   ? 		N 		-0.40159
N 1.0  		0.14101781820709347 		0.26376484444008247  0.5557697883036425 		Uiso   ? 		N 		-0.40159
N 1.0  		0.9695835990737848 		0.19972519383649034  0.8150070509157747 		Uiso   ? 		N 		-0.40159
N 1.0  		0.28534065316409124 		0.6038374717832957  0.5927835776994029 		Uiso   ? 		N 		-0.40159
N 1.0  		0.14436839761319537 		0.5326823044459712  0.7725045246894642 		Uiso   ? 		N 		-0.40159
N 1.0  		0.480380579471023 		0.9365492197467858  0.5598511567161029 		Uiso   ? 		N 		-0.40159
N 1.0  		0.292169766972107 		0.8644126018254982  0.7996667351585964 		Uiso   ? 		N 		-0.40159
N 1.0  		0.1336197806799026 		0.03435077043870842  0.60967199871648 		Uiso   ? 		N 		-0.40355
N 1.0  		0.15278134317684394 		0.9009716360781236  0.7984001035823156 		Uiso   ? 		N 		-0.40355
N 1.0  		0.2866523915564517 		0.3680439689861616  0.6409155775980725 		Uiso   ? 		N 		-0.40355
N 1.0  		0.3088975203402093 		0.23064088723132792  0.8234512614243131 		Uiso   ? 		N 		-0.40355
N 1.0  		0.4726362532438143 		0.6987928157817254  0.6162866302815018 		Uiso   ? 		N 		-0.40355
N 1.0  		0.49230095176014477 		0.5672784375306703  0.7933335772771924 		Uiso   ? 		N 		-0.40355
N 1.0  		0.6276330384775155 		0.02919815487290215  0.6404933670726456 		Uiso   ? 		N 		-0.40355
N 1.0  		0.6523392618466799 		0.9056335263519482  0.8196513666954708 		Uiso   ? 		N 		-0.40355
N 1.0  		0.8101800327312445 		0.3704975954460693  0.6154422092306481 		Uiso   ? 		N 		-0.40355
N 1.0  		0.8304164630736991 		0.23800176661105116  0.8140218930231118 		Uiso   ? 		N 		-0.40355
N 1.0  		0.9571731083691181 		0.7044361566395133  0.6478116828467122 		Uiso   ? 		N 		-0.40355
N 1.0  		0.9815125906766982 		0.5729217783884581  0.8441395771702325 		Uiso   ? 		N 		-0.40355
N 1.0  		0.2853921240022323 		0.22867798606340173  0.6706110512197662 		Uiso   ? 		N 		-0.40208
N 1.0  		0.3228119175908764 		-0.004171164981843165  0.8687685244868031 		Uiso   ? 		N 		-0.40208
N 1.0  		0.4665151045945594 		0.5645794484247719  0.632049156564107 		Uiso   ? 		N 		-0.40208
N 1.0  		0.492679395526627 		0.32706840710570223  0.8539911560968607 		Uiso   ? 		N 		-0.40208
N 1.0  		0.6193088324302354 		0.8931200314064188  0.6654037880728341 		Uiso   ? 		N 		-0.40208
N 1.0  		0.6560518096795702 		0.6644420453430171  0.8617316823963544 		Uiso   ? 		N 		-0.40208
N 1.0  		0.8092461374853874 		0.22965943664736485  0.6486561038975661 		Uiso   ? 		N 		-0.40208
N 1.0  		0.8349484233964346 		0.002698989105898518  0.8676426297523313 		Uiso   ? 		N 		-0.40208
N 1.0  		0.9554966580930875 		0.5667877122386888  0.6849662090842816 		Uiso   ? 		N 		-0.40208
N 1.0  		-0.0025759339595310127 		0.33271174796349007  0.8898790507581494 		Uiso   ? 		N 		-0.40208
N 1.0  		0.135952952594531 		0.8987633722642066  0.6326121039313429 		Uiso   ? 		N 		-0.40208
N 1.0  		0.15422223780497377 		0.6607616056531554  0.8492061034753555 		Uiso   ? 		N 		-0.40208
N 1.0  		0.3348458800479859 		0.25321425066247916  0.9167597875436636 		Uiso   ? 		N 		-0.39955
N 1.0  		0.29906674562400215 		0.4804200608499362  0.7191652616438626 		Uiso   ? 		N 		-0.39955
N 1.0  		0.5082382016458492 		0.5910786141917754  0.8872050507637789 		Uiso   ? 		N 		-0.39955
N 1.0  		0.45384742132435607 		0.8116596329374817  0.6920030511747304 		Uiso   ? 		N 		-0.39955
N 1.0  		0.6793324771704083 		0.9247718127392287  0.9094414717695969 		Uiso   ? 		N 		-0.39955
N 1.0  		0.6369433738966832 		0.14599077436451074  0.7177578932257728 		Uiso   ? 		N 		-0.39955
N 1.0  		0.8568402677172628 		0.2645009323780548  0.9109895770294956 		Uiso   ? 		N 		-0.39955
N 1.0  		0.8014175847335948 		0.4791932476199824  0.6949585248527189 		Uiso   ? 		N 		-0.39955
N 1.0  		0.006371605094891486 		0.5979487682795172  0.9548994716738959 		Uiso   ? 		N 		-0.39955
N 1.0  		-0.03009778558316817 		0.8148493473353617  0.7207133669037614 		Uiso   ? 		N 		-0.39955
N 1.0  		0.16966484064220366 		0.9198645598194132  0.9109895770294956 		Uiso   ? 		N 		-0.39955
N 1.0  		0.12404903896121486 		0.14525468642653844  0.683558840666192 		Uiso   ? 		N 		-0.39955
N 1.0  		0.24087404500823806 		0.0002453626459907744  0.5522513672584182 		Uiso   ? 		N 		-0.43128
N 1.0  		0.0872622195816632 		0.05128079301207184  0.7247947353162216 		Uiso   ? 		N 		-0.43128
N 1.0  		0.40494502607711547 		0.3258415938757484  0.5352222093995322 		Uiso   ? 		N 		-0.43128
N 1.0  		0.23200075029948253 		0.3658357051722446  0.7360536826609397 		Uiso   ? 		N 		-0.43128
N 1.0  		0.5863092108562752 		0.673275100598685  0.5556290514618336 		Uiso   ? 		N 		-0.43128
N 1.0  		0.41789944386531525 		0.7095887722053195  0.7236688405817499 		Uiso   ? 		N 		-0.43128
N 1.0  		0.7353516289728308 		-0.009078417901658652  0.5414146304391271 		Uiso   ? 		N 		-0.43128
N 1.0  		0.5755928626484359 		0.03901266071253313  0.7423868405423436 		Uiso   ? 		N 		-0.43128
N 1.0  		0.911123009434599 		0.33099420944155467  0.5550661040945977 		Uiso   ? 		N 		-0.43128
N 1.0  		0.7583305964978695 		0.3879183433114143  0.7323945247739062 		Uiso   ? 		N 		-0.43128
N 1.0  		0.06410001186870945 		0.6556089900873492  0.5390221041283746 		Uiso   ? 		N 		-0.43128
N 1.0  		0.9113738391822361 		0.7059083325154578  0.7513939984181179 		Uiso   ? 		N 		-0.43128
N 1.0  		0.06372114579130492 		0.018647561095298852  0.5602733672415298 		Uiso   ? 		N 		-0.43400
N 1.0  		0.9313773436746828 		0.9664834625576603  0.7903781035992039 		Uiso   ? 		N 		-0.43400
N 1.0  		0.25301320563752167 		0.3670625184021985  0.5684361040664503 		Uiso   ? 		N 		-0.43400
N 1.0  		0.07628981539817735 		0.28560211993326134  0.7861559983449348 		Uiso   ? 		N 		-0.43400
N 1.0  		0.39254688770624724 		0.6848071449602513  0.5622436830268555 		Uiso   ? 		N 		-0.43400
N 1.0  		0.2558378755167085 		0.6281283737363824  0.7885485246556873 		Uiso   ? 		N 		-0.43400
N 1.0  		0.5920508928081469 		0.034105407792717646  0.5744877882642362 		Uiso   ? 		N 		-0.43400
N 1.0  		0.40810801497142873 		0.9551967808420846  0.7832005246669463 		Uiso   ? 		N 		-0.43400
N 1.0  		0.7332516269100765 		0.3513593090587889  0.5680138935410234 		Uiso   ? 		N 		-0.43400
N 1.0  		0.5900956943828991 		0.29836097752478163  0.7841856825596091 		Uiso   ? 		N 		-0.43400
N 1.0  		0.917947594609685 		0.6914319364020022  0.581102419829258 		Uiso   ? 		N 		-0.43400
N 1.0  		0.7540527933157435 		0.6254293846304839  0.778837682570868 		Uiso   ? 		N 		-0.43400
N 1.0  		0.24664890495747532 		0.12611640003925803  0.6296566302533545 		Uiso   ? 		N 		-0.42978
N 1.0  		0.2666358204512391 		0.004171164981843165  0.8062813667236182 		Uiso   ? 		N 		-0.42978
N 1.0  		0.3991227369616773 		0.4514672686230249  0.6116423145018057 		Uiso   ? 		N 		-0.42978
N 1.0  		0.4236353636192662 		0.32412405535381295  0.8030444193620118 		Uiso   ? 		N 		-0.42978
N 1.0  		0.5820553657377445 		0.7969378741780353  0.6313454723550621 		Uiso   ? 		N 		-0.42978
N 1.0  		0.6044342930491902 		0.6678771223868879  0.8044517877801015 		Uiso   ? 		N 		-0.42978
N 1.0  		0.7388900262086993 		0.12464422416331339  0.6198050513267263 		Uiso   ? 		N 		-0.42978
N 1.0  		0.7635305108869992 		1.0000981450583963  0.8086738930343709 		Uiso   ? 		N 		-0.42978
N 1.0  		0.923513778740555 		0.4683972911963883  0.6334565249821968 		Uiso   ? 		N 		-0.42978
N 1.0  		0.941520222846529 		0.33909117675925016  0.8261252614186837 		Uiso   ? 		N 		-0.42978
N 1.0  		0.06762961148173002 		0.7876140936303858  0.6213531565866249 		Uiso   ? 		N 		-0.42978
N 1.0  		0.08271813424310737 		0.6575718912552754  0.8085331561925618 		Uiso   ? 		N 		-0.42978
N 1.0  		0.40102575026981646 		0.31332809893021885  0.6464043144286225 		Uiso   ? 		N 		-0.43051
N 1.0  		0.43647435705450865 		0.0986357836882913  0.8568058929330402 		Uiso   ? 		N 		-0.43051
N 1.0  		0.5821445755312145 		0.6602708803611739  0.6507671565247007 		Uiso   ? 		N 		-0.43051
N 1.0  		0.6050099528882655 		0.430611443713809  0.858072524509321 		Uiso   ? 		N 		-0.43051
N 1.0  		0.7297223359489894 		0.9839042104230052  0.6452784196941507 		Uiso   ? 		N 		-0.43051
N 1.0  		0.7716507324167525 		0.7660221807831976  0.8587762087183659 		Uiso   ? 		N 		-0.43051
N 1.0  		0.9208558903934773 		0.3287859456276377  0.6597743144004751 		Uiso   ? 		N 		-0.43051
N 1.0  		0.9482668953060087 		0.10354303660810679  0.8810126297241839 		Uiso   ? 		N 		-0.43051
N 1.0  		0.060835801824094815 		0.6465305721856904  0.6485153670557571 		Uiso   ? 		N 		-0.43051
N 1.0  		0.10552009405525334 		0.43331043281970755  0.8652501034415787 		Uiso   ? 		N 		-0.43051
N 1.0  		0.248257117087626 		0.9971537933065071  0.6472487354794764 		Uiso   ? 		N 		-0.43051
N 1.0  		0.2657093109541828 		0.7596427519874375  0.8622946297635903 		Uiso   ? 		N 		-0.43051
N 1.0  		0.23246911813840238 		0.23800176661105116  0.7074841037737177 		Uiso   ? 		N 		-0.43302
N 1.0  		0.2819537310355622 		1.021199332613603  0.9166190507018547 		Uiso   ? 		N 		-0.43302
N 1.0  		0.4119514395660691 		0.5795465698302091  0.7062174721974369 		Uiso   ? 		N 		-0.43302
N 1.0  		0.4494721623369692 		0.354549023456669  0.9070489454588444 		Uiso   ? 		N 		-0.43302
N 1.0  		0.5686750750168617 		0.904897438413976  0.7102988406098971 		Uiso   ? 		N 		-0.43302
N 1.0  		0.6202159938305816 		0.6909412111100206  0.903671261255429 		Uiso   ? 		N 		-0.43302
N 1.0  		0.7511270805953116 		0.24389047011482973  0.7097358932426613 		Uiso   ? 		N 		-0.43302
N 1.0  		0.7942318100607555 		0.02453626459907744  0.9138043138656752 		Uiso   ? 		N 		-0.43302
N 1.0  		0.9066503113258393 		0.5719403278044951  0.7190245248020536 		Uiso   ? 		N 		-0.43302
N 1.0  		0.9534835770028773 		0.3574933752085583  0.9444849453800318 		Uiso   ? 		N 		-0.43302
N 1.0  		0.08040784949499391 		0.9117675925017177  0.6996028406324151 		Uiso   ? 		N 		-0.43302
N 1.0  		0.109680801367363 		0.6825988811463344  0.9211226296397418 		Uiso   ? 		N 		-0.43302
N 1.0  		0.20261286103514572 		0.009569143193640202  0.531000104145263 		Uiso   ? 		N 		-0.26658
N 1.0  		0.05210737540291303 		0.06256747472764747  0.7485792615819384 		Uiso   ? 		N 		-0.26658
N 1.0  		0.35874949056007766 		0.3388458141132594  0.5317037883543079 		Uiso   ? 		N 		-0.26658
N 1.0  		0.18272294671068678 		0.37565021101187557  0.7363351563445576 		Uiso   ? 		N 		-0.26658
N 1.0  		0.5417960014721779 		0.6828442437923251  0.5402887357046553 		Uiso   ? 		N 		-0.26658
N 1.0  		0.3772198552059973 		0.7208754539208951  0.7425275773841524 		Uiso   ? 		N 		-0.26658
N 1.0  		0.6898352309410617 		0.00613406614976936  0.5447923146425425 		Uiso   ? 		N 		-0.26658
N 1.0  		0.5275418566484489 		0.05128079301207184  0.7405572615988267 		Uiso   ? 		N 		-0.26658
N 1.0  		0.8715475386052088 		0.3444891549710472  0.5370517883430489 		Uiso   ? 		N 		-0.26658
N 1.0  		0.7167746542806898 		0.3940524094611837  0.7519569457853538 		Uiso   ? 		N 		-0.26658
N 1.0  		0.01439722793525472 		0.6654234959269801  0.5402887357046553 		Uiso   ? 		N 		-0.26658
N 1.0  		0.8682189047686761 		0.7198940033369321  0.7409794721242537 		Uiso   ? 		N 		-0.26658
N 1.0  		0.03247445865104644 		0.03435077043870842  0.5841986303490555 		Uiso   ? 		N 		-0.27056
N 1.0  		0.8854183700525589 		0.9782608695652175  0.779259893096295 		Uiso   ? 		N 		-0.27056
N 1.0  		0.20079108783558533 		0.3709883207380509  0.5681546303828323 		Uiso   ? 		N 		-0.27056
N 1.0  		0.028672587365697208 		0.2995877907547355  0.7919262088591027 		Uiso   ? 		N 		-0.27056
N 1.0  		0.356561999229834 		0.7059083325154578  0.5773025251004158 		Uiso   ? 		N 		-0.27056
N 1.0  		0.21500273775307752 		0.6386789675139858  0.7698305246950936 		Uiso   ? 		N 		-0.27056
N 1.0  		0.54172591245744 		0.040975561880459324  0.5749099987896632 		Uiso   ? 		N 		-0.27056
N 1.0  		0.3575136033803758 		0.9628030228677986  0.7767266299437334 		Uiso   ? 		N 		-0.27056
N 1.0  		0.6945525096385481 		0.3700068701540878  0.5805394724620222 		Uiso   ? 		N 		-0.27056
N 1.0  		0.54424180527396 		0.3069486701344587  0.7685638931188129 		Uiso   ? 		N 		-0.27056
N 1.0  		0.8690859737427004 		0.6995289037196978  0.5743470514224274 		Uiso   ? 		N 		-0.27056
N 1.0  		0.7049305388312609 		0.6359799784080872  0.7770081036273514 		Uiso   ? 		N 		-0.27056
N 1.0  		0.20663965616057817 		0.13789380704681523  0.6099534724000979 		Uiso   ? 		N 		-0.27189
N 1.0  		0.21307302292446126 		0.007115516733732457  0.8082516825089439 		Uiso   ? 		N 		-0.27189
N 1.0  		0.3499194696865939 		0.4639807635685544  0.6129089460780865 		Uiso   ? 		N 		-0.27189
N 1.0  		0.37907401079000025 		0.3361468250073609  0.8143033667067298 		Uiso   ? 		N 		-0.27189
N 1.0  		0.5357764962841465 		0.8055255667877123  0.6182569460668275 		Uiso   ? 		N 		-0.27189
N 1.0  		0.5533644365223502 		0.6715575620767495  0.8050147351473373 		Uiso   ? 		N 		-0.27189
N 1.0  		0.6897261047559364 		0.13298655412699972  0.621493893428434 		Uiso   ? 		N 		-0.27189
N 1.0  		0.7159979150061375 		0.011286681715575621  0.8137404193394939 		Uiso   ? 		N 		-0.27189
N 1.0  		0.8795482294599972 		0.4782117970360193  0.6182569460668275 		Uiso   ? 		N 		-0.27189
N 1.0  		0.8911623731503899 		0.3454706055550103  0.8203550509045157 		Uiso   ? 		N 		-0.27189
N 1.0  		0.018899467996474184 		0.7976739621160075  0.6212124197448159 		Uiso   ? 		N 		-0.27189
N 1.0  		0.05099832331302118 		0.6757287270585927  0.8293622087802901 		Uiso   ? 		N 		-0.27189
N 1.0  		0.3625631948932019 		0.3307488467955639  0.6617446301858008 		Uiso   ? 		N 		-0.27079
N 1.0  		0.38305831100919585 		0.1005986848562175  0.8538504192550518 		Uiso   ? 		N 		-0.27079
N 1.0  		0.5306015952145469 		0.6664049465109433  0.6521745249427905 		Uiso   ? 		N 		-0.27079
N 1.0  		0.5556400177400618 		0.43429188340367064  0.846672840322794 		Uiso   ? 		N 		-0.27079
N 1.0  		0.6886149098291415 		-0.0009814505839630975  0.6599150512422841 		Uiso   ? 		N 		-0.27079
N 1.0  		0.7208766999988021 		0.7741191481008931  0.8558207350403775 		Uiso   ? 		N 		-0.27079
N 1.0  		0.8676041910753255 		0.33320247325547164  0.6578039986151495 		Uiso   ? 		N 		-0.27079
N 1.0  		0.900647346127569 		0.1111492786338208  0.8673611560687134 		Uiso   ? 		N 		-0.27079
N 1.0  		0.027310985002187427 		0.6678771223868879  0.6672333670163507 		Uiso   ? 		N 		-0.27079
N 1.0  		0.05682929639231826 		0.4391991363234862  0.8763683139444878 		Uiso   ? 		N 		-0.27079
N 1.0  		0.19648119423706215 		0.0036804396898616155  0.6466857881122404 		Uiso   ? 		N 		-0.27079
N 1.0  		0.21678195139633383 		0.7667582687211699  0.8535689455714338 		Uiso   ? 		N 		-0.27079
N 1.0  		0.19299225534530867 		0.25296888801648837  0.6903142090730228 		Uiso   ? 		N 		-0.26947
N 1.0  		0.2349576764894331 		0.02453626459907744  0.9005750507356315 		Uiso   ? 		N 		-0.26947
N 1.0  		0.36009736104077533 		0.5842084601040337  0.7052323143047741 		Uiso   ? 		N 		-0.26947
N 1.0  		0.3986323912281545 		0.36166454019040145  0.9062045244079905 		Uiso   ? 		N 		-0.26947
N 1.0  		0.5275793036357326 		0.917901658651487  0.6918623143329216 		Uiso   ? 		N 		-0.26947
N 1.0  		0.5733565949280115 		0.6987928157817254  0.8908642086508122 		Uiso   ? 		N 		-0.26947
N 1.0  		0.6997637211055413 		0.24953381097261754  0.706358209039246 		Uiso   ? 		N 		-0.26947
N 1.0  		0.7440952481597937 		0.032633231916772996  0.9076118928260802 		Uiso   ? 		N 		-0.26947
N 1.0  		0.8651865006680677 		0.5842084601040337  0.7022768406267856 		Uiso   ? 		N 		-0.26947
N 1.0  		0.9204953015157026 		0.3709883207380509  0.91999673490527 		Uiso   ? 		N 		-0.26947
N 1.0  		0.027302901658307288 		0.9152026695455885  0.7025583143104036 		Uiso   ? 		N 		-0.26947
N 1.0  		0.0618334879168575 		0.6931494749239376  0.9254854717358201 		Uiso   ? 		N 		-0.26947
N 1.0  		0.18447336500548464 		-0.04710962803022868  0.5423997883317899 		Uiso   ? 		N 		-0.49018
N 1.0  		0.03832276733302762 		0.002698989105898518  0.7412609458078717 		Uiso   ? 		N 		-0.49018
N 1.0  		0.3480471505619501 		0.28216704288939054  0.5439478935916887 		Uiso   ? 		N 		-0.49018
N 1.0  		0.17609958695510042 		0.32117970360192366  0.7238095774235588 		Uiso   ? 		N 		-0.49018
N 1.0  		0.5317223343681909 		0.6244479340465208  0.5440886304334976 		Uiso   ? 		N 		-0.49018
N 1.0  		0.3604603847234985 		0.6610069682991462  0.7325352616157152 		Uiso   ? 		N 		-0.49018
N 1.0  		0.6822721000827084 		-0.04809107861419178  0.55886599882344 		Uiso   ? 		N 		-0.49018
N 1.0  		0.520158346616993 		-0.0034350770438708413  0.7277502089942102 		Uiso   ? 		N 		-0.49018
N 1.0  		0.8572152704317835 		0.2843753067033075  0.5436664199080707 		Uiso   ? 		N 		-0.49018
N 1.0  		0.702002131662869 		0.33688291294533323  0.739712840547973 		Uiso   ? 		N 		-0.49018
N 1.0  		0.008746508627867355 		0.611198351163019  0.552955051467463 		Uiso   ? 		N 		-0.49018
N 1.0  		0.8611858387681672 		0.6624791441750909  0.7347870510846589 		Uiso   ? 		N 		-0.49018
N 1.0  		0.19804949224994695 		0.3157817253901266  0.5605548409251477 		Uiso   ? 		N 		-0.49088
N 1.0  		0.025915717680322428 		0.2473255471587006  0.8058591561981913 		Uiso   ? 		N 		-0.49088
N 1.0  		0.3338111369538283 		0.643831583079792  0.5719545251116747 		Uiso   ? 		N 		-0.49088
N 1.0  		0.20089175737482967 		0.5802826577681814  0.7796821036217219 		Uiso   ? 		N 		-0.49088
N 1.0  		0.5377626975448232 		0.9858671115909314  0.5657621040720797 		Uiso   ? 		N 		-0.49088
N 1.0  		0.35129994986971214 		0.9112768672097361  0.7930521035935745 		Uiso   ? 		N 		-0.49088
N 1.0  		0.6782749605687248 		0.30940229659436647  0.5825097882473479 		Uiso   ? 		N 		-0.49088
N 1.0  		0.5312502168253763 		0.24781627245068213  0.7771488404691603 		Uiso   ? 		N 		-0.49088
N 1.0  		0.8643333585697999 		0.6428501324958289  0.5674509461737874 		Uiso   ? 		N 		-0.49088
N 1.0  		0.6940638521059723 		0.5768475807243105  0.7824968404579014 		Uiso   ? 		N 		-0.49088
N 1.0  		0.011698127255853175 		0.9740897045833744  0.576035893524135 		Uiso   ? 		N 		-0.49088
N 1.0  		0.8749437943264973 		0.9186377465894594  0.7809487351980027 		Uiso   ? 		N 		-0.49088
N 1.0  		0.18836868274918836 		0.07925213465502012  0.6202272618521532 		Uiso   ? 		N 		-0.48745
N 1.0  		0.20983708894228176 		0.9517617037982138  0.8010741035766862 		Uiso   ? 		N 		-0.48745
N 1.0  		0.34283826024091624 		0.4090195308666209  0.6261382092081301 		Uiso   ? 		N 		-0.48745
N 1.0  		0.3660495529959843 		0.27652370203160276  0.8117701035541682 		Uiso   ? 		N 		-0.48745
N 1.0  		0.5272231297318986 		0.7476199823338896  0.6236049460555686 		Uiso   ? 		N 		-0.48745
N 1.0  		0.5498955600062746 		0.616596329374816  0.7981186298986976 		Uiso   ? 		N 		-0.48745
N 1.0  		0.684892476792435 		0.07827068407105703  0.6337379986658148 		Uiso   ? 		N 		-0.48745
N 1.0  		0.7055197199190582 		0.9524977917361862  0.8067035772490452 		Uiso   ? 		N 		-0.48745
N 1.0  		0.8656738109766633 		0.41858867406026107  0.6259974723663212 		Uiso   ? 		N 		-0.48745
N 1.0  		0.8859190389419658 		0.2878103837471784  0.818243998277381 		Uiso   ? 		N 		-0.48745
N 1.0  		0.013502905829696432 		0.7456570811659634  0.6359897881347584 		Uiso   ? 		N 		-0.48745
N 1.0  		0.03311066327801032 		0.6148787908528806  0.8264067351023016 		Uiso   ? 		N 		-0.48745
N 1.0  		0.34437323427241284 		0.2701442732358426  0.6586484196660033 		Uiso   ? 		N 		-0.48889
N 1.0  		0.3812981534946044 		0.047354990676219455  0.8624353666053992 		Uiso   ? 		N 		-0.48889
N 1.0  		0.525588346424148 		0.6121798017469822  0.6407748407562635 		Uiso   ? 		N 		-0.48889
N 1.0  		0.5492860892248215 		0.3790852880557464  0.8538504192550518 		Uiso   ? 		N 		-0.48889
N 1.0  		0.6732735125010674 		0.9390028462066936  0.65498926177897 		Uiso   ? 		N 		-0.48889
N 1.0  		0.713810764652861 		0.7162135636470705  0.8575095771420851 		Uiso   ? 		N 		-0.48889
N 1.0  		0.8645033538358925 		0.27897732849151047  0.6507671565247007 		Uiso   ? 		N 		-0.48889
N 1.0  		0.8911454108497064 		0.051771518304053396  0.8721462086902185 		Uiso   ? 		N 		-0.48889
N 1.0  		0.007804416379141144 		0.6050642850132497  0.6669518933327329 		Uiso   ? 		N 		-0.48889
N 1.0  		0.054871922805133644 		0.3830110903915988  0.880590419198757 		Uiso   ? 		N 		-0.48889
N 1.0  		0.19304156770540098 		0.9500441652762784  0.6345824197166686 		Uiso   ? 		N 		-0.48889
N 1.0  		0.21005118598160302 		0.709098046913338  0.8548355771477145 		Uiso   ? 		N 		-0.48889
N 1.0  		0.1780465883774791 		0.1916282265187948  0.6965066301126176 		Uiso   ? 		N 		-0.49095
N 1.0  		0.22568220726857813 		0.9694278143095496  0.9125376822893944 		Uiso   ? 		N 		-0.49095
N 1.0  		0.35684977231987725 		0.5309647659240359  0.7159283142822561 		Uiso   ? 		N 		-0.49095
N 1.0  		0.3924492859169636 		0.30424968102856026  0.9100044191368328 		Uiso   ? 		N 		-0.49095
N 1.0  		0.5101582909136608 		0.8592599862596918  0.7019953669431678 		Uiso   ? 		N 		-0.49095
N 1.0  		0.5644680584445532 		0.640641868681912  0.8952270507468904 		Uiso   ? 		N 		-0.49095
N 1.0  		0.694962962487472 		0.19530866620865642  0.7169134721749191 		Uiso   ? 		N 		-0.49095
N 1.0  		0.7370497651754191 		0.9743350672293651  0.9109895770294956 		Uiso   ? 		N 		-0.49095
N 1.0  		0.8519495527017221 		0.5245853371282756  0.7087507353499984 		Uiso   ? 		N 		-0.49095
N 1.0  		0.9059264714473635 		0.312101285700265  0.9267521033121009 		Uiso   ? 		N 		-0.49095
N 1.0  		0.026392704833033853 		0.8619589753655904  0.7098766300844702 		Uiso   ? 		N 		-0.49095
N 1.0  		0.059265036681227956 		0.6421140445578566  0.9396998927585265 		Uiso   ? 		N 		-0.49095
N 1.0  		0.3067274292627171 		-0.050790067720090294  0.5356444199249591 		Uiso   ? 		N 		-0.43034
N 1.0  		0.1478426953502247 		-0.00392580233585239  0.7239503142653678 		Uiso   ? 		N 		-0.43034
N 1.0  		0.49171457877929653 		0.28094022965943666  0.5290297883599373 		Uiso   ? 		N 		-0.43034
N 1.0  		0.32475521831828197 		0.3278044950436746  0.7580086299831398 		Uiso   ? 		N 		-0.43034
N 1.0  		0.6457550205954362 		0.6217489449406223  0.5518291567329913 		Uiso   ? 		N 		-0.43034
N 1.0  		0.49250659215358517 		0.6607616056531554  0.7273279984687832 		Uiso   ? 		N 		-0.43034
N 1.0  		0.824638194397534 		-0.054470507409951914  0.5221336831112975 		Uiso   ? 		N 		-0.43034
N 1.0  		0.6614731088389783 		-0.0017175385219354207  0.75660126156505 		Uiso   ? 		N 		-0.43034
N 1.0  		-0.02398379536473577 		0.2779958779075474  0.5514069462075644 		Uiso   ? 		N 		-0.43034
N 1.0  		0.8226220132323296 		0.33418392383943474  0.7371795773954115 		Uiso   ? 		N 		-0.43034
N 1.0  		0.1540768335474887 		0.6205221317106684  0.5105932620829616 		Uiso   ? 		N 		-0.43034
N 1.0  		0.009521072740482805 		0.6735204632446757  0.7748970510002168 		Uiso   ? 		N 		-0.43034
N 1.0  		0.3310882565198878 		0.3255962312297576  0.5926428408575941 		Uiso   ? 		N 		-0.42890
N 1.0  		0.15468891744294655 		0.23628422808911573  0.7553346299887692 		Uiso   ? 		N 		-0.42890
N 1.0  		0.4737324337138846 		0.6342624398861518  0.5768803145749889 		Uiso   ? 		N 		-0.42890
N 1.0  		0.3167623188393283 		0.5748846795563843  0.7813709457234296 		Uiso   ? 		N 		-0.42890
N 1.0  		0.6710028332182862 		0.987584650112867  0.6075609460893454 		Uiso   ? 		N 		-0.42890
N 1.0  		0.4937998427122259 		0.9132397683776623  0.7581493668249486 		Uiso   ? 		N 		-0.42890
N 1.0  		0.8102026435708598 		0.2978702522328001  0.575754419840517 		Uiso   ? 		N 		-0.42890
N 1.0  		0.6593095755723299 		0.2514967121405437  0.7799635773053398 		Uiso   ? 		N 		-0.42890
N 1.0  		0.0033366202053118355 		0.6573265286092845  0.6106571566091429 		Uiso   ? 		N 		-0.42890
N 1.0  		0.8449605884744416 		0.588379625085877  0.7632158931300719 		Uiso   ? 		N 		-0.42890
N 1.0  		0.13914824253933156 		0.9655020119736972  0.576035893524135 		Uiso   ? 		N 		-0.42890
N 1.0  		-0.009376885364100584 		0.9132397683776623  0.8024814719947758 		Uiso   ? 		N 		-0.42890
N 1.0  		0.3138934335279239 		0.07998822259299246  0.6202272618521532 		Uiso   ? 		N 		-0.42791
N 1.0  		0.34461512041317954 		0.9574050446560017  0.8371027350797838 		Uiso   ? 		N 		-0.42791
N 1.0  		0.486840858389473 		0.4080380802826578  0.603620314518694 		Uiso   ? 		N 		-0.42791
N 1.0  		0.4942380679787072 		0.27578761409363045  0.8127552614468311 		Uiso   ? 		N 		-0.42791
N 1.0  		0.6525770573065848 		0.7505643340857788  0.6282492618352647 		Uiso   ? 		N 		-0.42791
N 1.0  		0.677922049407796 		0.6197860437726961  0.8264067351023016 		Uiso   ? 		N 		-0.42791
N 1.0  		0.8285052850877244 		0.08415938757483563  0.6051684197785928 		Uiso   ? 		N 		-0.42791
N 1.0  		0.8350072476583427 		0.95053489056826  0.8202143140627067 		Uiso   ? 		N 		-0.42791
N 1.0  		-0.013341090882584838 		0.4178525861222888  0.6352861039257135 		Uiso   ? 		N 		-0.42791
N 1.0  		0.027119417468526114 		0.2986063401707724  0.8520208403115351 		Uiso   ? 		N 		-0.42791
N 1.0  		0.1552250531506449 		0.743939542644028  0.6026351566260313 		Uiso   ? 		N 		-0.42791
N 1.0  		0.1577173935306041 		0.6082539994111297  0.8105034719778875 		Uiso   ? 		N 		-0.42791
N 1.0  		0.47613241521645766 		0.2671999214839533  0.6552707354625878 		Uiso   ? 		N 		-0.43036
N 1.0  		0.5073136233088634 		0.04907252919815488  0.8394952613905363 		Uiso   ? 		N 		-0.43036
N 1.0  		0.6652471753817364 		0.6224850328785946  0.6783515775192599 		Uiso   ? 		N 		-0.43036
N 1.0  		0.6758908861109005 		0.3832564530375896  0.8546948403059057 		Uiso   ? 		N 		-0.43036
N 1.0  		0.8088663141698916 		0.9377760329767397  0.6468265249540495 		Uiso   ? 		N 		-0.43036
N 1.0  		0.8494058874676447 		0.7213661792128767  0.8510356824188722 		Uiso   ? 		N 		-0.43036
N 1.0  		0.00953735308723222 		0.29149082343703997  0.688203156445888 		Uiso   ? 		N 		-0.43036
N 1.0  		0.012139306613306242 		0.05275296888801649  0.8907234718090032 		Uiso   ? 		N 		-0.43036
N 1.0  		0.1349763027994256 		0.5954951418196095  0.6507671565247007 		Uiso   ? 		N 		-0.43036
N 1.0  		0.17015547834377173 		0.38153891451565414  0.8423099982267158 		Uiso   ? 		N 		-0.43036
N 1.0  		0.32528499120808074 		0.9527431543821769  0.6827144196153381 		Uiso   ? 		N 		-0.43036
N 1.0  		0.331490480040909 		0.7122877613112181  0.8572281034584672 		Uiso   ? 		N 		-0.43036
N 1.0  		0.304673135840183 		0.18819314947492397  0.699884314316033 		Uiso   ? 		N 		-0.43092
N 1.0  		0.3515092586330919 		0.9699185396015311  0.9094414717695969 		Uiso   ? 		N 		-0.43092
N 1.0  		0.49234628709836425 		0.5346452056138974  0.6734257880559458 		Uiso   ? 		N 		-0.43092
N 1.0  		0.5288133566304647 		0.31136519776229266  0.8853754718202622 		Uiso   ? 		N 		-0.43092
N 1.0  		0.6466996613080997 		0.8595053489056826  0.6945363143272919 		Uiso   ? 		N 		-0.43092
N 1.0  		0.6972855349193166 		0.6487388359996075  0.8905827349671943 		Uiso   ? 		N 		-0.43092
N 1.0  		0.839035941618812 		0.20806752380017668  0.6822922090899112 		Uiso   ? 		N 		-0.43092
N 1.0  		0.8799528877859669 		0.9839042104230052  0.9056415770407545 		Uiso   ? 		N 		-0.43092
N 1.0  		-0.025284414988288983 		0.5218863480223771  0.7183208405930088 		Uiso   ? 		N 		-0.43092
N 1.0  		0.017526811514224472 		0.30449504367455105  0.9277372612047636 		Uiso   ? 		N 		-0.43092
N 1.0  		0.1634863776229315 		0.8752085582490923  0.6693444196434855 		Uiso   ? 		N 		-0.43092
N 1.0  		0.18593092996625266 		0.6345078025321426  0.8791830507806673 		Uiso   ? 		N 		-0.43092
N 1.0  		0.306402030876334 		-0.0017175385219354207  0.5514069462075644 		Uiso   ? 		N 		-0.43813
N 1.0  		0.14817236272652598 		0.04858180390617333  0.7128321037624588 		Uiso   ? 		N 		-0.43813
N 1.0  		0.47408534487481346 		0.3238786927078222  0.5312815778288809 		Uiso   ? 		N 		-0.43813
N 1.0  		0.30358586665194975 		0.3670625184021985  0.7495644194746012 		Uiso   ? 		N 		-0.43813
N 1.0  		0.6474975828643319 		0.6715575620767495  0.5659028409138888 		Uiso   ? 		N 		-0.43813
N 1.0  		0.48395101811436686 		0.709098046913338  0.7211355774291882 		Uiso   ? 		N 		-0.43813
N 1.0  		0.8046627709745782 		-0.013249582883501816  0.5293112620435553 		Uiso   ? 		N 		-0.43813
N 1.0  		0.6468844760379729 		0.04220237511041319  0.7478755773728936 		Uiso   ? 		N 		-0.43813
N 1.0  		-0.02685907581907329 		0.32706840710570223  0.5651991567048439 		Uiso   ? 		N 		-0.43813
N 1.0  		0.82282900084975 		0.38644616743546967  0.728453893203255 		Uiso   ? 		N 		-0.43813
N 1.0  		0.1350411812272996 		0.6614976935911278  0.5176301041734103 		Uiso   ? 		N 		-0.43813
N 1.0  		-0.012890350614394419 		0.7132692118951811  0.7699712615369027 		Uiso   ? 		N 		-0.43813
N 1.0  		0.12992594799871013 		0.012513494945529493  0.5615399988178106 		Uiso   ? 		N 		-0.43752
N 1.0  		-0.0074940480906283136 		0.9667288252036511  0.8116293667123593 		Uiso   ? 		N 		-0.43752
N 1.0  		0.321616983100487 		0.37295122190597707  0.5844801040326734 		Uiso   ? 		N 		-0.43752
N 1.0  		0.1385230430221859 		0.28044950436745514  0.7599789457684655 		Uiso   ? 		N 		-0.43752
N 1.0  		0.4618821014305789 		0.6794091667484543  0.5656213672302708 		Uiso   ? 		N 		-0.43752
N 1.0  		0.3195761295927196 		0.626410835214447  0.7974149456896528 		Uiso   ? 		N 		-0.43752
N 1.0  		0.6567289179869248 		0.03214250662479145  0.5958797882192004 		Uiso   ? 		N 		-0.43752
N 1.0  		0.4765539221841217 		0.9539699676121308  0.7687046299606218 		Uiso   ? 		N 		-0.43752
N 1.0  		0.8009438603237884 		0.34522524290901957  0.5678731566992145 		Uiso   ? 		N 		-0.43752
N 1.0  		0.6535075761505477 		0.2981156148787909  0.7931928404353835 		Uiso   ? 		N 		-0.43752
N 1.0  		-0.011072391768796153 		0.7007557169496517  0.6022129461006043 		Uiso   ? 		N 		-0.43752
N 1.0  		0.8263587141217595 		0.6310727254882718  0.7710971562713744 		Uiso   ? 		N 		-0.43752
N 1.0  		0.3102163358294369 		0.12660712533123958  0.6345824197166686 		Uiso   ? 		N 		-0.43972
N 1.0  		0.3311670941485518 		0.0031897143978800667  0.8279548403622004 		Uiso   ? 		N 		-0.43972
N 1.0  		0.4671765331751433 		0.4507311806850525  0.6048869460949748 		Uiso   ? 		N 		-0.43972
N 1.0  		0.48634403617906174 		0.3228972421238591  0.8026222088365849 		Uiso   ? 		N 		-0.43972
N 1.0  		0.6507072866458784 		0.800372951221906  0.6402118933890276 		Uiso   ? 		N 		-0.43972
N 1.0  		0.66830402450693 		0.6681224850328786  0.8178217877519541 		Uiso   ? 		N 		-0.43972
N 1.0  		0.8067313322498356 		0.12390813622534107  0.6105164197673338 		Uiso   ? 		N 		-0.43972
N 1.0  		0.8289446146190621 		0.9996074197664148  0.8121923140795951 		Uiso   ? 		N 		-0.43972
N 1.0  		-0.01371463271413656 		0.4693787417803514  0.6466857881122404 		Uiso   ? 		N 		-0.43972
N 1.0  		0.009187882978264783 		0.3417901658651487  0.8458284192719402 		Uiso   ? 		N 		-0.43972
N 1.0  		0.13570747941778027 		0.7856511924624595  0.609249788191053 		Uiso   ? 		N 		-0.43972
N 1.0  		0.14957800221319692 		0.6548729021493769  0.7985408404241247 		Uiso   ? 		N 		-0.43972
N 1.0  		0.4672240760003332 		0.31185592305427423  0.6409155775980725 		Uiso   ? 		N 		-0.43900
N 1.0  		0.49718960527273764 		0.09937187162626364  0.8406211561250081 		Uiso   ? 		N 		-0.43900
N 1.0  		0.6522117124779023 		0.6673863970949063  0.6704703143779572 		Uiso   ? 		N 		-0.43900
N 1.0  		0.668586181383075 		0.432819707527726  0.8631390508144441 		Uiso   ? 		N 		-0.43900
N 1.0  		0.797719191094439 		0.9839042104230052  0.6411970512816905 		Uiso   ? 		N 		-0.43900
N 1.0  		0.8382346926696076 		0.7687211698890961  0.8563836824076133 		Uiso   ? 		N 		-0.43900
N 1.0  		-0.010928789371247027 		0.331730297379527  0.677929366993833 		Uiso   ? 		N 		-0.43900
N 1.0  		0.009502909199841973 		0.10697811365197764  0.8960714717977443 		Uiso   ? 		N 		-0.43900
N 1.0  		0.12492449993105267 		0.6421140445578566  0.6404933670726456 		Uiso   ? 		N 		-0.43900
N 1.0  		0.16206655161749256 		0.43208361958975366  0.8430136824357607 		Uiso   ? 		N 		-0.43900
N 1.0  		0.30996389921480805 		-0.0056433408577878106  0.6707517880615752 		Uiso   ? 		N 		-0.43900
N 1.0  		0.33244882031135087 		0.7630778290313083  0.8693314718540389 		Uiso   ? 		N 		-0.43900
N 1.0  		0.29923917569504327 		0.2355481401511434  0.7133950511296946 		Uiso   ? 		N 		-0.43991
N 1.0  		0.3449887759037202 		1.0185003435077045  0.9138043138656752 		Uiso   ? 		N 		-0.43991
N 1.0  		0.47681788319459223 		0.5788104818922367  0.682573682773529 		Uiso   ? 		N 		-0.43991
N 1.0  		0.5156223446223174 		0.3555304740406321  0.8964936823231712 		Uiso   ? 		N 		-0.43991
N 1.0  		0.6364353682673973 		0.9061242516439298  0.706358209039246 		Uiso   ? 		N 		-0.43991
N 1.0  		0.6874462222232731 		0.6953577387378547  0.9019824191537212 		Uiso   ? 		N 		-0.43991
N 1.0  		0.8232621781972782 		0.25174207478653454  0.6920030511747304 		Uiso   ? 		N 		-0.43991
N 1.0  		0.8640119205214014 		0.028952792226911377  0.9091599980859789 		Uiso   ? 		N 		-0.43991
N 1.0  		0.968966872886408 		0.5712042398665227  0.7287353668868729 		Uiso   ? 		N 		-0.43991
N 1.0  		1.0184310334220013 		0.35479438610265973  0.9447664190636497 		Uiso   ? 		N 		-0.43991
N 1.0  		0.1456927969912875 		0.9156933948375701  0.6789145248864957 		Uiso   ? 		N 		-0.43991
N 1.0  		0.17197097005938797 		0.6767101776425557  0.8919901033852841 		Uiso   ? 		N 		-0.43991
N 1.0  		0.21842376279202985 		0.0679654529394445  0.5217114725858706 		Uiso   ? 		N 		-0.60578
N 1.0  		0.06522164361037765 		0.12194523505741486  0.7525198931525898 		Uiso   ? 		N 		-0.60578
N 1.0  		0.3699096802482964 		0.3960153106291099  0.5217114725858706 		Uiso   ? 		N 		-0.60578
N 1.0  		0.1922401560882858 		0.43208361958975366  0.7477348405310845 		Uiso   ? 		N 		-0.60578
N 1.0  		0.5573134002661316 		0.7432034547060556  0.5317037883543079 		Uiso   ? 		N 		-0.60578
N 1.0  		0.3917558159289043 		0.7792717636666995  0.7523791563107808 		Uiso   ? 		N 		-0.60578
N 1.0  		0.6970631918682044 		0.060113848267739724  0.530296419936218 		Uiso   ? 		N 		-0.60578
N 1.0  		0.5380076347516626 		0.1091863774658946  0.7484385247401294 		Uiso   ? 		N 		-0.60578
N 1.0  		0.8919522113627418 		0.40484836588477774  0.5262150515237578 		Uiso   ? 		N 		-0.60578
N 1.0  		0.7302152947965168 		0.45195799391500646  0.7608233668193192 		Uiso   ? 		N 		-0.60578
N 1.0  		0.022148777243353124 		0.7208754539208951  0.5291705252017462 		Uiso   ? 		N 		-0.60578
N 1.0  		0.8738784216989115 		0.7758366866228286  0.7480163142147026 		Uiso   ? 		N 		-0.60578
N 1.0  		0.5391922784112013 		0.08563156345078025  0.593065051383021 		Uiso   ? 		N 		-0.60256
N 1.0  		0.3666335234969178 		0.01717538521935421  0.762512208921027 		Uiso   ? 		N 		-0.60256
N 1.0  		0.7212749464979504 		0.43110216900579057  0.5925021040157851 		Uiso   ? 		N 		-0.60256
N 1.0  		0.5593823671684235 		0.3648542545882815  0.7588530510339936 		Uiso   ? 		N 		-0.60256
N 1.0  		0.8689818631514947 		0.750318971439788  0.5881392619197069 		Uiso   ? 		N 		-0.60256
N 1.0  		0.7146273690357572 		0.6919226616939838  0.7633566299718808 		Uiso   ? 		N 		-0.60256
N 1.0  		0.05282219034056296 		0.09544606929041125  0.5919391566485492 		Uiso   ? 		N 		-0.60256
N 1.0  		0.8999667477593314 		0.03754048483658848  0.7722230510058462 		Uiso   ? 		N 		-0.60256
N 1.0  		0.20260818641819328 		0.4234959269800766  0.5796950514111683 		Uiso   ? 		N 		-0.60256
N 1.0  		0.029335103527249384 		0.3459613308469919  0.7729267352148911 		Uiso   ? 		N 		-0.60256
N 1.0  		0.3831529587075077 		0.7650407301992345  0.5887022092869427 		Uiso   ? 		N 		-0.60256
N 1.0  		0.22374452275507067 		0.6978113651977623  0.7668750510171052 		Uiso   ? 		N 		-0.60256
N 1.0  		0.22194456478220248 		0.1982530179605457  0.604042525044121 		Uiso   ? 		N 		-0.60275
N 1.0  		0.2131156638147207 		0.05692413386985966  0.8234512614243131 		Uiso   ? 		N 		-0.60275
N 1.0  		0.35991860047686836 		0.5196780842084601  0.6005241039988967 		Uiso   ? 		N 		-0.60275
N 1.0  		0.3940766188258463 		0.3967513985670822  0.8196513666954708 		Uiso   ? 		N 		-0.60275
N 1.0  		0.5496990582126492 		0.8626950633035627  0.6069979987221095 		Uiso   ? 		N 		-0.60275
N 1.0  		0.5591795025568986 		0.7282363333006183  0.8127552614468311 		Uiso   ? 		N 		-0.60275
N 1.0  		0.695409693408756 		0.18770242418294242  0.60967199871648 		Uiso   ? 		N 		-0.60275
N 1.0  		0.7296903915166149 		0.06502110118755522  0.8295029456220991 		Uiso   ? 		N 		-0.60275
N 1.0  		0.8953591312168814 		0.5366081067818236  0.6082646302983903 		Uiso   ? 		N 		-0.60275
N 1.0  		0.8892926024896836 		0.3952792226911375  0.835413892978076 		Uiso   ? 		N 		-0.60275
N 1.0  		0.02535848102489968 		0.8496908430660517  0.6044647355695479 		Uiso   ? 		N 		-0.60275
N 1.0  		0.07441072782859981 		0.7365786632643047  0.8373842087634017 		Uiso   ? 		N 		-0.60275
N 1.0  		0.3840062467897982 		0.39233487093924824  0.6672333670163507 		Uiso   ? 		N 		-0.60415
N 1.0  		0.3874188151828697 		0.15776818137206794  0.8518801034697261 		Uiso   ? 		N 		-0.60415
N 1.0  		0.5336848372082841 		0.7171950142310335  0.6673741038581598 		Uiso   ? 		N 		-0.60415
N 1.0  		0.5590607508109688 		0.4917067425655119  0.8472357876900298 		Uiso   ? 		N 		-0.60415
N 1.0  		0.7097621376168483 		0.05618804593188734  0.6735665248977546 		Uiso   ? 		N 		-0.60415
N 1.0  		0.7312526676885671 		0.8322700952007067  0.8504727350516363 		Uiso   ? 		N 		-0.60415
N 1.0  		0.8721924595210653 		0.38742761801943276  0.6694851564852944 		Uiso   ? 		N 		-0.60415
N 1.0  		0.9088655427486065 		0.16880950044165277  0.862998313972635 		Uiso   ? 		N 		-0.60415
N 1.0  		0.053886670380124735 		0.7299538718225538  0.6730035775305188 		Uiso   ? 		N 		-0.60415
N 1.0  		0.05143700321545858 		0.48876239081362255  0.8658130508088147 		Uiso   ? 		N 		-0.60415
N 1.0  		0.19484566432531025 		0.04588281480027481  0.6687814722762495 		Uiso   ? 		N 		-0.60415
N 1.0  		0.22195954691389358 		0.8234370399450388  0.8561022087239953 		Uiso   ? 		N 		-0.60415
N 1.0  		0.209269804415132 		0.3135734615762097  0.6846847354006638 		Uiso   ? 		N 		-0.60276
N 1.0  		0.24550446738324758 		0.080478947884974  0.8881902086564417 		Uiso   ? 		N 		-0.60276
N 1.0  		0.36175011289622244 		0.6342624398861518  0.6901734722312137 		Uiso   ? 		N 		-0.60276
N 1.0  		0.40096428056887023 		0.4139267837864364  0.8945233665378456 		Uiso   ? 		N 		-0.60276
N 1.0  		0.540816251602078 		0.9775247816272451  0.6880624196040792 		Uiso   ? 		N 		-0.60276
N 1.0  		0.5833733209639818 		0.757925213465502  0.886219892871116 		Uiso   ? 		N 		-0.60276
N 1.0  		0.7030923226170402 		0.3008146039846894  0.6904549459148317 		Uiso   ? 		N 		-0.60276
N 1.0  		0.754650836676456 		0.09029345372460497  0.9007157875774405 		Uiso   ? 		N 		-0.60276
N 1.0  		0.8797553307364067 		0.6430954951418196  0.6958029459035727 		Uiso   ? 		N 		-0.60276
N 1.0  		0.9297759489983878 		0.42864854254588286  0.9180264191199443 		Uiso   ? 		N 		-0.60276
N 1.0  		0.02323369296059341 		0.9623122975758172  0.6877809459204611 		Uiso   ? 		N 		-0.60276
N 1.0  		0.06326495197712706 		0.7414859161841202  0.9083155770351251 		Uiso   ? 		N 		-0.60276
N 1.0  		0.18218239602904773 		0.080478947884974  0.5006009463145243 		Uiso   ? 		N 		-0.41262
N 1.0  		0.03105471397956283 		0.13053292766709199  0.7782747352036322 		Uiso   ? 		N 		-0.41262
N 1.0  		0.32114666741760844 		0.40558445382275005  0.5183337883824551 		Uiso   ? 		N 		-0.41262
N 1.0  		0.14473681019183857 		0.4445971145352832  0.7468904194802307 		Uiso   ? 		N 		-0.41262
N 1.0  		0.5139524521571306 		0.7525272352537051  0.5153783147044667 		Uiso   ? 		N 		-0.41262
N 1.0  		0.3453542667164254 		0.7876140936303858  0.7656084194408245 		Uiso   ? 		N 		-0.41262
N 1.0  		0.647417349002766 		0.06919226616939837  0.530296419936218 		Uiso   ? 		N 		-0.41262
N 1.0  		0.49080658944099353 		0.12145450976543332  0.7459052615875679 		Uiso   ? 		N 		-0.41262
N 1.0  		0.8497282504291006 		0.4168711355383257  0.5093266305066808 		Uiso   ? 		N 		-0.41262
N 1.0  		0.6845826934827552 		0.46226322504661893  0.7718008404804193 		Uiso   ? 		N 		-0.41262
N 1.0  		-0.024079627619116917 		0.7333889488664246  0.5349407357159143 		Uiso   ? 		N 		-0.41262
N 1.0  		0.8256871406943478 		0.7844243792325057  0.7399943142315909 		Uiso   ? 		N 		-0.41262
N 1.0  		0.488490461161004 		0.0900480910786142  0.5943316829593017 		Uiso   ? 		N 		-0.41156
N 1.0  		0.32056946536160874 		0.03214250662479145  0.762371472079218 		Uiso   ? 		N 		-0.41156
N 1.0  		0.6838572467372878 		0.44508783982726474  0.6126274723944685 		Uiso   ? 		N 		-0.41156
N 1.0  		0.5181134514372855 		0.3736873098439494  0.7399943142315909 		Uiso   ? 		N 		-0.41156
N 1.0  		0.8151079674160908 		0.7517911473157327  0.5881392619197069 		Uiso   ? 		N 		-0.41156
N 1.0  		0.6640088857221198 		0.7007557169496517  0.7609641036611282 		Uiso   ? 		N 		-0.41156
N 1.0  		0.014431850131701243 		0.1091863774658946  0.6103756829255248 		Uiso   ? 		N 		-0.41156
N 1.0  		0.8560669371696383 		0.04833644126018256  0.7558975773560052 		Uiso   ? 		N 		-0.41156
N 1.0  		0.14909353233658398 		0.4239866522720581  0.5854652619253363 		Uiso   ? 		N 		-0.41156
N 1.0  		-0.012192124675427268 		0.36362744135832764  0.7823561036160924 		Uiso   ? 		N 		-0.41156
N 1.0  		0.3509183570193139 		0.7834429286485426  0.6088275776656261 		Uiso   ? 		N 		-0.41156
N 1.0  		0.18517224057335221 		0.7056629698694671  0.7440756826440512 		Uiso   ? 		N 		-0.41156
N 1.0  		0.1830875772604016 		0.20978506232211208  0.5830727356145837 		Uiso   ? 		N 		-0.41152
N 1.0  		0.15943018652906193 		0.059623122975758176  0.8248586298424029 		Uiso   ? 		N 		-0.41152
N 1.0  		0.31507254230752 		0.5353812935518697  0.6027758934678403 		Uiso   ? 		N 		-0.41152
N 1.0  		0.3558242324756018 		0.407792717636667  0.8397767350741542 		Uiso   ? 		N 		-0.41152
N 1.0  		0.5043270905163858 		0.8705466679752675  0.5910947355976953 		Uiso   ? 		N 		-0.41152
N 1.0  		0.5052157964080459 		0.7299538718225538  0.8148663140739657 		Uiso   ? 		N 		-0.41152
N 1.0  		0.6501298572719008 		0.20168809500441653  0.6188198934340634 		Uiso   ? 		N 		-0.41152
N 1.0  		0.6834355937856011 		0.07238198056727844  0.8432951561193787 		Uiso   ? 		N 		-0.41152
N 1.0  		0.852366222384523 		0.5466679752674454  0.5917984198067402 		Uiso   ? 		N 		-0.41152
N 1.0  		0.8346016154103937 		0.3972421238590637  0.8331621035091324 		Uiso   ? 		N 		-0.41152
N 1.0  		-0.01985561642109135 		0.8646579644714889  0.6082646302983903 		Uiso   ? 		N 		-0.41152
N 1.0  		0.0423140799990232 		0.7522818726077142  0.8610279981873096 		Uiso   ? 		N 		-0.41152
N 1.0  		0.34725888689155626 		0.40681126705270393  0.688625366971315 		Uiso   ? 		N 		-0.41251
N 1.0  		0.33424812865531867 		0.16022180783197568  0.8508949455770634 		Uiso   ? 		N 		-0.41251
N 1.0  		0.480514150680733 		0.7196486406909413  0.6706110512197662 		Uiso   ? 		N 		-0.41251
N 1.0  		0.5061025544557473 		0.49416036902541954  0.8445617876956595 		Uiso   ? 		N 		-0.41251
N 1.0  		0.6709139477178953 		0.06943762881538915  0.6924252617001574 		Uiso   ? 		N 		-0.41251
N 1.0  		0.6835673798192632 		0.8388948866424576  0.8406211561250081 		Uiso   ? 		N 		-0.41251
N 1.0  		0.818138942958764 		0.38939051918735895  0.6684999985926315 		Uiso   ? 		N 		-0.41251
N 1.0  		0.8622667774635346 		0.1742074786534498  0.8445617876956595 		Uiso   ? 		N 		-0.41251
N 1.0  		0.020296114867352888 		0.750318971439788  0.6924252617001574 		Uiso   ? 		N 		-0.41251
N 1.0  		0.0033596043469277526 		0.495877907547355  0.8781978928880044 		Uiso   ? 		N 		-0.41251
N 1.0  		0.14476604349236502 		0.05324369417999804  0.6670926301745419 		Uiso   ? 		N 		-0.41251
N 1.0  		0.16820833093737048 		0.8251545784669743  0.8599021034528377 		Uiso   ? 		N 		-0.41251
N 1.0  		0.17077205854712577 		0.32412405535381295  0.6654037880728341 		Uiso   ? 		N 		-0.41250
N 1.0  		0.1960863887898752 		0.08661301403474335  0.8767905244699148 		Uiso   ? 		N 		-0.41250
N 1.0  		0.3085553546460871 		0.6379428795760134  0.6905956827566406 		Uiso   ? 		N 		-0.41250
N 1.0  		0.35033699963238507 		0.42104230052016883  0.8981825244248789 		Uiso   ? 		N 		-0.41250
N 1.0  		0.5000592695131769 		-0.01005986848562175  0.6703295775361483 		Uiso   ? 		N 		-0.41250
N 1.0  		0.5405512353356727 		0.7657768181372069  0.8684870508031852 		Uiso   ? 		N 		-0.41250
N 1.0  		0.6512711134371788 		0.30596721955049566  0.6927067353837753 		Uiso   ? 		N 		-0.41250
N 1.0  		0.7058373592546401 		0.09593679458239279  0.8881902086564417 		Uiso   ? 		N 		-0.41250
N 1.0  		0.8461207871093954 		0.6548729021493769  0.6711739985870021 		Uiso   ? 		N 		-0.41250
N 1.0  		0.8950396086874082 		0.4445971145352832  0.8964936823231712 		Uiso   ? 		N 		-0.41250
N 1.0  		-0.023829398491458487 		0.9718814407694573  0.6952399985363369 		Uiso   ? 		N 		-0.41250
N 1.0  		0.014166769215228747 		0.7508096967317697  0.9107081033458777 		Uiso   ? 		N 		-0.41250
N 1.0  		0.2300044041919779 		0.2249975463735401  0.5435256830662617 		Uiso   ? 		N 		-0.43326
N 1.0  		0.06803740220772758 		0.26867209735989794  0.7304242089885806 		Uiso   ? 		N 		-0.43326
N 1.0  		0.41863260065266233 		0.5682598881146335  0.5401479988628464 		Uiso   ? 		N 		-0.43326
N 1.0  		0.2515394416639596 		0.6067818235351851  0.7307056826721986 		Uiso   ? 		N 		-0.43326
N 1.0  		0.5660695500959492 		-0.10158013544018059  0.5595696830324849 		Uiso   ? 		N 		-0.43326
N 1.0  		0.40641872540061014 		0.9394935714986752  0.7273279984687832 		Uiso   ? 		N 		-0.43326
N 1.0  		0.7477225955461204 		0.23113161252330947  0.5499995777894746 		Uiso   ? 		N 		-0.43326
N 1.0  		0.5884721435029447 		0.28363921876533515  0.7330982089829511 		Uiso   ? 		N 		-0.43326
N 1.0  		0.8975896044143514 		0.5572185690450486  0.5568956830381143 		Uiso   ? 		N 		-0.43326
N 1.0  		0.7499427779127399 		0.6053096476592404  0.7231058932145139 		Uiso   ? 		N 		-0.43326
N 1.0  		0.08270255149143754 		-0.10403376190008834  0.5485922093713849 		Uiso   ? 		N 		-0.43326
N 1.0  		0.9279223940343635 		0.9497988026302876  0.739431366864355 		Uiso   ? 		N 		-0.43326
N 1.0  		0.56908458626884 		0.25591323976837765  0.587576314552471 		Uiso   ? 		N 		-0.43456
N 1.0  		0.41995021490193263 		0.19138286387280404  0.7799635773053398 		Uiso   ? 		N 		-0.43456
N 1.0  		0.7538111021679211 		0.5900971636078124  0.5685768409082593 		Uiso   ? 		N 		-0.43456
N 1.0  		0.5741480400073551 		0.515506919226617  0.7896744193901591 		Uiso   ? 		N 		-0.43456
N 1.0  		0.9034744184866708 		0.917901658651487  0.5763173672077528 		Uiso   ? 		N 		-0.43456
N 1.0  		0.7625331980962372 		0.8646579644714889  0.7785562088872501 		Uiso   ? 		N 		-0.43456
N 1.0  		0.08488522222070602 		0.25689469035234075  0.5667472619647427 		Uiso   ? 		N 		-0.43456
N 1.0  		0.9102525317336471 		0.1847580724310531  0.8089553667179887 		Uiso   ? 		N 		-0.43456
N 1.0  		0.23381478113212975 		0.5896064383158308  0.5742063145806183 		Uiso   ? 		N 		-0.43456
N 1.0  		0.09149769052546314 		0.528511139464128  0.7870004193957886 		Uiso   ? 		N 		-0.43456
N 1.0  		0.4234725591090296 		0.9323780547649426  0.5660435777556978 		Uiso   ? 		N 		-0.43456
N 1.0  		0.23319794128576404 		0.8484640298360979  0.7924891562263386 		Uiso   ? 		N 		-0.43456
N 1.0  		0.08030649800181552 		0.02674452841299441  0.6236049460555686 		Uiso   ? 		N 		-0.43363
N 1.0  		0.10297530891517387 		0.8965551084502896  0.8137404193394939 		Uiso   ? 		N 		-0.43363
N 1.0  		0.22929947445814422 		0.3540582981646875  0.6282492618352647 		Uiso   ? 		N 		-0.43363
N 1.0  		0.25287880648985483 		0.2222985572676416  0.8148663140739657 		Uiso   ? 		N 		-0.43363
N 1.0  		0.4202562651916056 		0.6956031013838454  0.626419682891748 		Uiso   ? 		N 		-0.43363
N 1.0  		0.43463278112228204 		0.5628619099028365  0.801214840418495 		Uiso   ? 		N 		-0.43363
N 1.0  		0.5694477559355857 		0.018647561095298852  0.6348638934002866 		Uiso   ? 		N 		-0.43363
N 1.0  		0.5940400971687171 		0.8965551084502896  0.8159922088084375 		Uiso   ? 		N 		-0.43363
N 1.0  		0.7550288748159039 		0.36559034252625383  0.6252937881572762 		Uiso   ? 		N 		-0.43363
N 1.0  		0.7741699849512786 		0.2326037883992541  0.8164144193338644 		Uiso   ? 		N 		-0.43363
N 1.0  		0.9012835507545329 		0.691677299047993  0.6350046302420954 		Uiso   ? 		N 		-0.43363
N 1.0  		0.927185000582132 		0.5628619099028365  0.8313325245656158 		Uiso   ? 		N 		-0.43363
N 1.0  		0.22750914204608064 		0.21788202963980766  0.6585076828241944 		Uiso   ? 		N 		-0.43337
N 1.0  		0.26592434959044975 		0.9912650898027285  0.8637019981816799 		Uiso   ? 		N 		-0.43337
N 1.0  		0.408811743465305 		0.5532927667091962  0.6414785249653083 		Uiso   ? 		N 		-0.43337
N 1.0  		0.43443949306264 		0.3236333300618314  0.8596206297692197 		Uiso   ? 		N 		-0.43337
N 1.0  		0.5631586411981521 		0.8828148002748062  0.6571003144061045 		Uiso   ? 		N 		-0.43337
N 1.0  		0.6020200436938938 		0.6587987044852293  0.852302313995153 		Uiso   ? 		N 		-0.43337
N 1.0  		0.7515932409472611 		0.2222985572676416  0.6523152617845994 		Uiso   ? 		N 		-0.43337
N 1.0  		0.7787764815877265 		-0.0  0.8653908402833878 		Uiso   ? 		N 		-0.43337
N 1.0  		0.9032282310309523 		0.555746393169104  0.6669518933327329 		Uiso   ? 		N 		-0.43337
N 1.0  		0.9452769861116369 		0.331730297379527  0.8774942086789597 		Uiso   ? 		N 		-0.43337
N 1.0  		0.08084993812435903 		0.8914024928844834  0.6440117881178699 		Uiso   ? 		N 		-0.43337
N 1.0  		0.10273387741036319 		0.6597801550691923  0.8607465245036915 		Uiso   ? 		N 		-0.43337
N 1.0  		0.244355842153057 		0.47256845617823146  0.7098766300844702 		Uiso   ? 		N 		-0.43477
N 1.0  		0.27565508771242486 		0.24192756894690354  0.9139450507074841 		Uiso   ? 		N 		-0.43477
N 1.0  		0.397738897060553 		0.8035626656197861  0.7018546301013587 		Uiso   ? 		N 		-0.43477
N 1.0  		0.45493371659061 		0.5851899106879969  0.8993084191593507 		Uiso   ? 		N 		-0.43477
N 1.0  		0.5809422552920246 		0.14108352144469527  0.7088914721918075 		Uiso   ? 		N 		-0.43477
N 1.0  		0.6198875276942377 		0.9112768672097361  0.9140857875492931 		Uiso   ? 		N 		-0.43477
N 1.0  		0.7446803875756509 		0.47281381882422224  0.7032619985194484 		Uiso   ? 		N 		-0.43477
N 1.0  		0.7977480834179982 		0.2546864265384238  0.9138043138656752 		Uiso   ? 		N 		-0.43477
N 1.0  		0.9166093496897918 		0.8094513691235646  0.7086099985081895 		Uiso   ? 		N 		-0.43477
N 1.0  		0.9479590598402876 		0.5827362842280892  0.9482848401088741 		Uiso   ? 		N 		-0.43477
N 1.0  		0.07149590655899725 		0.13789380704681523  0.6979139985307073 		Uiso   ? 		N 		-0.43477
N 1.0  		0.11773390465723826 		0.9154480321915792  0.9242188401595394 		Uiso   ? 		N 		-0.43477
N 1.0  		0.24686469019774362 		0.1800961821572284  0.5404294725464642 		Uiso   ? 		N 		-0.64637
N 1.0  		0.0841704072830561 		0.224016095789577  0.7297205247795356 		Uiso   ? 		N 		-0.64637
N 1.0  		0.423911011693489 		0.5201688095004418  0.5266372620491847 		Uiso   ? 		N 		-0.64637
N 1.0  		0.2535078203609625 		0.5584453822750024  0.7460459984293769 		Uiso   ? 		N 		-0.64637
N 1.0  		0.585966817844175 		0.8553341839238395  0.5567549461963054 		Uiso   ? 		N 		-0.64637
N 1.0  		0.42376973044189936 		0.8955736578663265  0.7323945247739062 		Uiso   ? 		N 		-0.64637
N 1.0  		0.751839947689003 		0.18156835803317303  0.5381776830775207 		Uiso   ? 		N 		-0.64637
N 1.0  		0.5926881036821239 		0.2355481401511434  0.7471718931638487 		Uiso   ? 		N 		-0.64637
N 1.0  		0.9134203089039018 		0.5128079301207185  0.5554883146200246 		Uiso   ? 		N 		-0.64637
N 1.0  		0.7688557504740481 		0.5640887231327903  0.733942630033805 		Uiso   ? 		N 		-0.64637
N 1.0  		0.08186327161885876 		0.8462557660221808  0.5325482094051617 		Uiso   ? 		N 		-0.64637
N 1.0  		0.9289903474509202 		0.8975365590342527  0.7492829457909833 		Uiso   ? 		N 		-0.64637
N 1.0  		0.5750990758629517 		0.20929433703013053  0.6031981039932671 		Uiso   ? 		N 		-0.64708
N 1.0  		0.424345795908009 		0.14280105996663067  0.76757873522615 		Uiso   ? 		N 		-0.64708
N 1.0  		0.7676067153476249 		0.5454411620374914  0.5781469461512695 		Uiso   ? 		N 		-0.64708
N 1.0  		0.5958081107092108 		0.4772303464520562  0.7777117878363963 		Uiso   ? 		N 		-0.64708
N 1.0  		0.909006986668107 		0.8720188438512121  0.5934872619084478 		Uiso   ? 		N 		-0.64708
N 1.0  		0.7666352761393833 		0.8180390617332418  0.762230735237409 		Uiso   ? 		N 		-0.64708
N 1.0  		0.09644852801796994 		0.20904897438413977  0.5719545251116747 		Uiso   ? 		N 		-0.64708
N 1.0  		0.9320112104717992 		0.14795367553243696  0.7953038930625181 		Uiso   ? 		N 		-0.64708
N 1.0  		0.2387756174874418 		0.5447050740995192  0.5922206303321671 		Uiso   ? 		N 		-0.64708
N 1.0  		0.09211659187477653 		0.47747570909804693  0.773348945740318 		Uiso   ? 		N 		-0.64708
N 1.0  		0.433695185181452 		0.8835508882127786  0.5712508409026298 		Uiso   ? 		N 		-0.64708
N 1.0  		0.25454691377899363 		0.8087152811855923  0.7840449457178 		Uiso   ? 		N 		-0.64708
N 1.0  		0.07975424461527852 		0.9797330454411621  0.6044647355695479 		Uiso   ? 		N 		-0.64640
N 1.0  		0.11548718343805248 		0.8501815683580332  0.818666208802808 		Uiso   ? 		N 		-0.64640
N 1.0  		0.24893093032704172 		0.31087447247031114  0.6274048407844109 		Uiso   ? 		N 		-0.64640
N 1.0  		0.2576095574271416 		0.17396211600745903  0.8272511561531555 		Uiso   ? 		N 		-0.64640
N 1.0  		0.41940533058030816 		0.6480027480616352  0.6086868408238172 		Uiso   ? 		N 		-0.64640
N 1.0  		0.44665393660963726 		0.515506919226617  0.8105034719778875 		Uiso   ? 		N 		-0.64640
N 1.0  		0.5841137821661742 		0.9735989792913927  0.6261382092081301 		Uiso   ? 		N 		-0.64640
N 1.0  		0.6038946839644969 		0.8469918539601532  0.8228883140570773 		Uiso   ? 		N 		-0.64640
N 1.0  		0.7572819588529893 		0.3135734615762097  0.6144570513379851 		Uiso   ? 		N 		-0.64640
N 1.0  		0.7826686179224805 		0.1850034350770439  0.8248586298424029 		Uiso   ? 		N 		-0.64640
N 1.0  		0.920310405451874 		0.6489841986455982  0.6330343144567699 		Uiso   ? 		N 		-0.64640
N 1.0  		0.9332476336214124 		0.5137893807046815  0.8401989455995812 		Uiso   ? 		N 		-0.64640
N 1.0  		0.23737252646470827 		0.17003631367160663  0.6690629459598675 		Uiso   ? 		N 		-0.64892
N 1.0  		0.2710953549721319 		0.9399842967906566  0.8666574718596686 		Uiso   ? 		N 		-0.64892
N 1.0  		0.42555814733503783 		0.5098635783688291  0.6486561038975661 		Uiso   ? 		N 		-0.64892
N 1.0  		0.438335557410345 		0.2723525370497596  0.8493468403171646 		Uiso   ? 		N 		-0.64892
N 1.0  		0.5713966405518558 		0.8376680734125038  0.6728628406887098 		Uiso   ? 		N 		-0.64892
N 1.0  		0.6083433103506724 		0.6072725488271666  0.8542726297804787 		Uiso   ? 		N 		-0.64892
N 1.0  		0.7602955664679445 		0.17298066542349594  0.6586484196660033 		Uiso   ? 		N 		-0.64892
N 1.0  		0.7844586583664989 		0.9493080773383061  0.8556799981985684 		Uiso   ? 		N 		-0.64892
N 1.0  		0.9102963738638639 		0.5074099519089215  0.6793367354119226 		Uiso   ? 		N 		-0.64892
N 1.0  		0.9498915337669313 		0.27848660319952895  0.8765090507862967 		Uiso   ? 		N 		-0.64892
N 1.0  		0.09540570157993217 		0.8469918539601532  0.6506264196828918 		Uiso   ? 		N 		-0.64892
N 1.0  		0.10360461475432683 		0.604573559721268  0.85821326135113 		Uiso   ? 		N 		-0.64892
N 1.0  		0.25714594553912956 		0.42717636666993825  0.7024175774685946 		Uiso   ? 		N 		-0.64811
N 1.0  		0.28972892975532244 		0.1982530179605457  0.9025453665209572 		Uiso   ? 		N 		-0.64811
N 1.0  		0.4052079485155394 		0.7564530375895575  0.6873587353950343 		Uiso   ? 		N 		-0.64811
N 1.0  		0.45743216014545707 		0.5336637550299342  0.8910049454926212 		Uiso   ? 		N 		-0.64811
N 1.0  		0.5908954501241008 		0.0929924428305035  0.7022768406267856 		Uiso   ? 		N 		-0.64811
N 1.0  		0.632859573053167 		0.8717734812052214  0.8945233665378456 		Uiso   ? 		N 		-0.64811
N 1.0  		0.7514286345770885 		0.4212876631661596  0.6965066301126176 		Uiso   ? 		N 		-0.64811
N 1.0  		0.8059532134262698 		0.20904897438413977  0.8990269454757327 		Uiso   ? 		N 		-0.64811
N 1.0  		0.927068537657128 		0.7593973893414467  0.7059359985138189 		Uiso   ? 		N 		-0.64811
N 1.0  		0.9689487906797225 		0.5439689861615469  0.9384332611822458 		Uiso   ? 		N 		-0.64811
N 1.0  		0.07451793849479989 		0.08783982726469723  0.6859513669769445 		Uiso   ? 		N 		-0.64811
N 1.0  		0.11568904180256429 		0.8658847777014428  0.9078933665096981 		Uiso   ? 		N 		-0.64811
N 1.0  		0.1961341589330431 		0.17298066542349594  0.5232595778457693 		Uiso   ? 		N 		-0.27237
N 1.0  		0.0342898367076737 		0.21690057905584456  0.7492829457909833 		Uiso   ? 		N 		-0.27237
N 1.0  		0.3661595071190662 		0.5113357542447738  0.5333926304560155 		Uiso   ? 		N 		-0.27237
N 1.0  		0.20025147875089194 		0.5501030523113162  0.7312686300394344 		Uiso   ? 		N 		-0.27237
N 1.0  		0.5279523585062946 		0.8425753263323192  0.5449330514843514 		Uiso   ? 		N 		-0.27237
N 1.0  		0.3648395717238365 		0.8818333496908431  0.7408387352824448 		Uiso   ? 		N 		-0.27237
N 1.0  		0.6968508153548639 		0.17273530277750515  0.5504217883149015 		Uiso   ? 		N 		-0.27237
N 1.0  		0.5400933043116262 		0.22597899695750323  0.7308464195140075 		Uiso   ? 		N 		-0.27237
N 1.0  		0.8566238495319822 		0.5007851604671705  0.5423997883317899 		Uiso   ? 		N 		-0.27237
N 1.0  		0.708536768585975 		0.5518205908332516  0.7385869458135013 		Uiso   ? 		N 		-0.27237
N 1.0  		0.03159059004424947 		0.83963097458043  0.5508439988403284 		Uiso   ? 		N 		-0.27237
N 1.0  		0.8795852218113249 		0.8943468446363726  0.7315501037230525 		Uiso   ? 		N 		-0.27237
N 1.0  		0.5229357333140017 		0.19506330356266566  0.5849023145581004 		Uiso   ? 		N 		-0.27611
N 1.0  		0.36920991209240483 		0.1349494552949259  0.7795413667799129 		Uiso   ? 		N 		-0.27611
N 1.0  		0.7164294531616404 		0.5459318873294731  0.5926428408575941 		Uiso   ? 		N 		-0.27611
N 1.0  		0.5370992397863252 		0.4652075767985082  0.7685638931188129 		Uiso   ? 		N 		-0.27611
N 1.0  		0.8558710036709578 		0.8575424477377565  0.5750507356314721 		Uiso   ? 		N 		-0.27611
N 1.0  		0.7124785092488666 		0.805770929433703  0.7777117878363963 		Uiso   ? 		N 		-0.27611
N 1.0  		0.04214733079194751 		0.20414172146432427  0.5839171566654375 		Uiso   ? 		N 		-0.27611
N 1.0  		0.8744874701694423 		0.1361762685248798  0.7872818930794065 		Uiso   ? 		N 		-0.27611
N 1.0  		0.18324530152665142 		0.5309647659240359  0.5775839987840337 		Uiso   ? 		N 		-0.27611
N 1.0  		0.04208926981792899 		0.47134164294827763  0.7922076825427207 		Uiso   ? 		N 		-0.27611
N 1.0  		0.3805550468533739 		0.8801158111689078  0.5830727356145837 		Uiso   ? 		N 		-0.27611
N 1.0  		0.19991702309864923 		0.7989007753459614  0.7706749457459475 		Uiso   ? 		N 		-0.27611
N 1.0  		0.19022853588104477 		0.2941898125429385  0.6160051565978839 		Uiso   ? 		N 		-0.27297
N 1.0  		0.2043444181942231 		0.1639022475218373  0.8116293667123593 		Uiso   ? 		N 		-0.27297
N 1.0  		0.36738226303593463 		0.6374521542840318  0.6259974723663212 		Uiso   ? 		N 		-0.27297
N 1.0  		0.39026070700575166 		0.5110903915987831  0.8193698930118529 		Uiso   ? 		N 		-0.27297
N 1.0  		0.5266886499001138 		0.9632937481597803  0.6195235776431083 		Uiso   ? 		N 		-0.27297
N 1.0  		0.5470829504928407 		0.8379134360584946  0.8131774719722579 		Uiso   ? 		N 		-0.27297
N 1.0  		0.7045908725921542 		0.30891157130238495  0.6296566302533545 		Uiso   ? 		N 		-0.27297
N 1.0  		0.7231755250011412 		0.17396211600745903  0.8214809456389874 		Uiso   ? 		N 		-0.27297
N 1.0  		0.8606682399031103 		0.6325449013642164  0.6238864197391865 		Uiso   ? 		N 		-0.27297
N 1.0  		0.8781358215283925 		0.5047109628030229  0.8286585245712452 		Uiso   ? 		N 		-0.27297
N 1.0  		0.029374157381524768 		0.9699185396015311  0.6240271565809955 		Uiso   ? 		N 		-0.27297
N 1.0  		0.06794632590425426 		0.849445480420061  0.8366805245543568 		Uiso   ? 		N 		-0.27297
N 1.0  		0.1826023607797873 		0.15654136814211406  0.6534411565190712 		Uiso   ? 		N 		-0.27528
N 1.0  		0.21506136702204098 		0.9345863185788597  0.8607465245036915 		Uiso   ? 		N 		-0.27528
N 1.0  		0.3680432046555288 		0.4998037098832074  0.6590706301914302 		Uiso   ? 		N 		-0.27528
N 1.0  		0.38185251739301085 		0.26818137206791637  0.8553985245149506 		Uiso   ? 		N 		-0.27528
N 1.0  		0.5148038737294177 		0.8239277652370204  0.6601965249259021 		Uiso   ? 		N 		-0.27528
N 1.0  		0.5524320021594623 		0.6021199332613604  0.8451247350628953 		Uiso   ? 		N 		-0.27528
N 1.0  		0.7061258466236509 		0.17003631367160663  0.6694851564852944 		Uiso   ? 		N 		-0.27528
N 1.0  		0.7273622195547602 		0.943910099126509  0.8553985245149506 		Uiso   ? 		N 		-0.27528
N 1.0  		0.8557803653195524 		0.49612327019334573  0.6642778933383623 		Uiso   ? 		N 		-0.27528
N 1.0  		0.8998007941651787 		0.2777505152615566  0.8611687350291184 		Uiso   ? 		N 		-0.27528
N 1.0  		0.04027861538717592 		0.8408577878103838  0.6620261038694187 		Uiso   ? 		N 		-0.27528
N 1.0  		0.05516565308604196 		0.6062910982432035  0.8735535771083083 		Uiso   ? 		N 		-0.27528
N 1.0  		0.20312297717630104 		0.4232505643340858  0.6915808406493035 		Uiso   ? 		N 		-0.27339
N 1.0  		0.23081636628295532 		0.18794778682893318  0.8993084191593507 		Uiso   ? 		N 		-0.27339
N 1.0  		0.3489262799017273 		0.7441849052900187  0.7021361037849766 		Uiso   ? 		N 		-0.27339
N 1.0  		0.40264904150675906 		0.5294925900480911  0.9005750507356315 		Uiso   ? 		N 		-0.27339
N 1.0  		0.5408135081451962 		0.09397389341446659  0.688766103813124 		Uiso   ? 		N 		-0.27339
N 1.0  		0.5745516107523563 		0.8609775247816273  0.8963529454813622 		Uiso   ? 		N 		-0.27339
N 1.0  		0.6943233981425022 		0.41417214643242717  0.7012916827341228 		Uiso   ? 		N 		-0.27339
N 1.0  		0.7471721273356314 		0.20070664442045344  0.9055008401989456 		Uiso   ? 		N 		-0.27339
N 1.0  		0.8756852617757025 		0.7552262243596035  0.6907364195984497 		Uiso   ? 		N 		-0.27339
N 1.0  		0.9168623055904441 		0.5388163705957406  0.9229522085832585 		Uiso   ? 		N 		-0.27339
N 1.0  		0.02359898878035414 		0.0794974973010109  0.7035434722030663 		Uiso   ? 		N 		-0.27339
N 1.0  		0.06432104002087524 		0.8587692609677103  0.9226707348996406 		Uiso   ? 		N 		-0.27339
N 1.0  		0.20979829473101805 		0.12636176268524882  0.5245262094220501 		Uiso   ? 		N 		-0.59491
N 1.0  		0.06033118823784871 		0.18058690744920994  0.7558975773560052 		Uiso   ? 		N 		-0.59491
N 1.0  		0.3726230487804214 		0.4634900382765728  0.5228373673203424 		Uiso   ? 		N 		-0.59491
N 1.0  		0.19821541351906602 		0.5022573363431152  0.7484385247401294 		Uiso   ? 		N 		-0.59491
N 1.0  		0.551410958623083 		0.805770929433703  0.5340963146650604 		Uiso   ? 		N 		-0.59491
N 1.0  		0.38533858352774797 		0.8420846010403377  0.7485792615819384 		Uiso   ? 		N 		-0.59491
N 1.0  		0.6998816449135143 		0.12439886151732261  0.5346592620322963 		Uiso   ? 		N 		-0.59491
N 1.0  		0.5426750818030334 		0.1788693689272745  0.7468904194802307 		Uiso   ? 		N 		-0.59491
N 1.0  		0.8783408613018544 		0.46177249975463736  0.5343777883486783 		Uiso   ? 		N 		-0.59491
N 1.0  		0.7282932253597127 		0.5152615565806262  0.7546309457797243 		Uiso   ? 		N 		-0.59491
N 1.0  		0.027331015052831586 		0.7903130827362843  0.5324074725633526 		Uiso   ? 		N 		-0.59491
N 1.0  		0.8770408422982798 		0.8420846010403377  0.7460459984293769 		Uiso   ? 		N 		-0.59491
N 1.0  		0.5265646875673201 		0.15089802728432625  0.6037610513605031 		Uiso   ? 		N 		-0.59565
N 1.0  		0.37341059817184746 		0.08980272843262342  0.7613863141865551 		Uiso   ? 		N 		-0.59565
N 1.0  		0.7311648374441109 		0.5010305231131612  0.6015092618915595 		Uiso   ? 		N 		-0.59565
N 1.0  		0.5583671994889541 		0.427421729315929  0.7577271562995218 		Uiso   ? 		N 		-0.59565
N 1.0  		0.8628910030587008 		0.8116596329374817  0.5898281040214145 		Uiso   ? 		N 		-0.59565
N 1.0  		0.7164579075331319 		0.7589066640494652  0.7598382089266564 		Uiso   ? 		N 		-0.59565
N 1.0  		0.0567929046609693 		0.15948571989400334  0.5909539987558863 		Uiso   ? 		N 		-0.59565
N 1.0  		0.8946272403195591 		0.09740897045833743  0.7760229457346886 		Uiso   ? 		N 		-0.59565
N 1.0  		0.1924230719831219 		0.48557267641574253  0.5925021040157851 		Uiso   ? 		N 		-0.59565
N 1.0  		0.03973330875462902 		0.4203062125821965  0.7782747352036322 		Uiso   ? 		N 		-0.59565
N 1.0  		0.3935247710663436 		0.8342329963686329  0.5917984198067402 		Uiso   ? 		N 		-0.59565
N 1.0  		0.22038316555712853 		0.7586613014034744  0.7629344194464539 		Uiso   ? 		N 		-0.59565
N 1.0  		0.21578796599854427 		0.2586122288742762  0.6057313671458288 		Uiso   ? 		N 		-0.59352
N 1.0  		0.20647714361838693 		0.11801943272156247  0.8283770508876273 		Uiso   ? 		N 		-0.59352
N 1.0  		0.36752156411853193 		0.5935322406516832  0.60418326188593 		Uiso   ? 		N 		-0.59352
N 1.0  		0.4017013330441347 		0.4629993129845913  0.8264067351023016 		Uiso   ? 		N 		-0.59352
N 1.0  		0.5435577335287274 		0.9201099224654039  0.6103756829255248 		Uiso   ? 		N 		-0.59352
N 1.0  		0.5549681846696384 		0.7890862695063304  0.8206365245881337 		Uiso   ? 		N 		-0.59352
N 1.0  		0.7055690155952625 		0.25689469035234075  0.6198050513267263 		Uiso   ? 		N 		-0.59352
N 1.0  		0.7337837855959021 		0.1293061144371381  0.8342879982436042 		Uiso   ? 		N 		-0.59352
N 1.0  		0.8823852516729824 		0.5935322406516832  0.6161458934396928 		Uiso   ? 		N 		-0.59352
N 1.0  		0.8875742256023612 		0.45686524683482194  0.8351324192944581 		Uiso   ? 		N 		-0.59352
N 1.0  		0.03070506556153907 		0.9215820983413485  0.6084053671401993 		Uiso   ? 		N 		-0.59352
N 1.0  		0.07414691280215197 		0.7976739621160075  0.8365397877125478 		Uiso   ? 		N 		-0.59352
N 1.0  		0.3881172361147812 		0.46005496123270195  0.6703295775361483 		Uiso   ? 		N 		-0.59433
N 1.0  		0.3837134904308692 		0.21665521640985377  0.8451247350628953 		Uiso   ? 		N 		-0.59433
N 1.0  		0.5238348927044231 		0.7795171263126902  0.6737072617395636 		Uiso   ? 		N 		-0.59433
N 1.0  		0.5589348896431382 		0.5501030523113162  0.8456876824301313 		Uiso   ? 		N 		-0.59433
N 1.0  		0.7174854598714332 		0.12390813622534107  0.6783515775192599 		Uiso   ? 		N 		-0.59433
N 1.0  		0.7339725126975807 		0.895082932574345  0.8459691561137491 		Uiso   ? 		N 		-0.59433
N 1.0  		0.8621869659128911 		0.4490136421631171  0.6759590512085073 		Uiso   ? 		N 		-0.59433
N 1.0  		0.9076531589965441 		0.22843262341741097  0.8593391560856017 		Uiso   ? 		N 		-0.59433
N 1.0  		0.05840736595003032 		0.8006183138678968  0.6730035775305188 		Uiso   ? 		N 		-0.59433
N 1.0  		0.055979449361989175 		0.5518205908332516  0.8703166297467019 		Uiso   ? 		N 		-0.59433
N 1.0  		0.19294119013420202 		0.11262145450976545  0.6652630512310252 		Uiso   ? 		N 		-0.59433
N 1.0  		0.21974165336819984 		0.8823240749828247  0.8632797876562531 		Uiso   ? 		N 		-0.59433
N 1.0  		0.21417149221545717 		0.37565021101187557  0.6848254722424727 		Uiso   ? 		N 		-0.59572
N 1.0  		0.2432384303923853 		0.14181960938266758  0.8904419981253853 		Uiso   ? 		N 		-0.59572
N 1.0  		0.3564851417701624 		0.6968299146137992  0.6897512617057868 		Uiso   ? 		N 		-0.59572
N 1.0  		0.40580902730117896 		0.4767396211600746  0.8979010507412609 		Uiso   ? 		N 		-0.59572
N 1.0  		0.5433600951452118 		0.03999411129649623  0.6893290511803598 		Uiso   ? 		N 		-0.59572
N 1.0  		0.5877449439064629 		0.8231916772990481  0.8766497876281057 		Uiso   ? 		N 		-0.59572
N 1.0  		0.7019304034561058 		0.3643635292963  0.6953807353781458 		Uiso   ? 		N 		-0.59572
N 1.0  		0.7549522769992438 		0.15506919226616941  0.8898790507581494 		Uiso   ? 		N 		-0.59572
N 1.0  		0.888197136298581 		0.7088526842673472  0.6869365248696073 		Uiso   ? 		N 		-0.59572
N 1.0  		0.9325944020436978 		0.4929335557954657  0.9187301033289892 		Uiso   ? 		N 		-0.59572
N 1.0  		0.02823113168134434 		0.0296888801648837  0.6935511564346292 		Uiso   ? 		N 		-0.59572
N 1.0  		0.06188406616697445 		0.8096967317695555  0.9047971559899007 		Uiso   ? 		N 		-0.59572
N 1.0  		0.15937006405209572 		0.11900088330552558  0.5053859989360295 		Uiso   ? 		N 		-0.42867
N 1.0  		0.008733101038134267 		0.17003631367160663  0.773630419423936 		Uiso   ? 		N 		-0.42867
N 1.0  		0.3155330864455713 		0.4534301697909511  0.5312815778288809 		Uiso   ? 		N 		-0.42867
N 1.0  		0.1449350001864111 		0.49514181960938264  0.733661156350187 		Uiso   ? 		N 		-0.42867
N 1.0  		0.4901498844862838 		0.787368730984395  0.5279038936254655 		Uiso   ? 		N 		-0.42867
N 1.0  		0.32628574505080415 		0.8280989302188635  0.7574456826159038 		Uiso   ? 		N 		-0.42867
N 1.0  		0.6471882375067202 		0.11335754244773777  0.5515476830493733 		Uiso   ? 		N 		-0.42867
N 1.0  		0.4921394454649666 		0.16831877514967125  0.7271872616269742 		Uiso   ? 		N 		-0.42867
N 1.0  		0.8244141798293629 		0.45293944449896956  0.5190374725915001 		Uiso   ? 		N 		-0.42867
N 1.0  		0.6653979685351417 		0.4978408087152812  0.7558975773560052 		Uiso   ? 		N 		-0.42867
N 1.0  		-0.02106212431624399 		0.7831975660025519  0.5511254725239464 		Uiso   ? 		N 		-0.42867
N 1.0  		0.8308142716207794 		0.8371773481205221  0.7254984195252665 		Uiso   ? 		N 		-0.42867
N 1.0  		0.4791242722547882 		0.1342133673569536  0.5794135777275504 		Uiso   ? 		N 		-0.42834
N 1.0  		0.32116624283229656 		0.07753459613308471  0.7813709457234296 		Uiso   ? 		N 		-0.42834
N 1.0  		0.6732906531108072 		0.4919521052115026  0.6078424197729634 		Uiso   ? 		N 		-0.42834
N 1.0  		0.49959258987520416 		0.41441750907841796  0.7484385247401294 		Uiso   ? 		N 		-0.42834
N 1.0  		0.8064537853405758 		0.7986554126999706  0.5770210514167977 		Uiso   ? 		N 		-0.42834
N 1.0  		0.6608553764045886 		0.7488467955638435  0.7725045246894642 		Uiso   ? 		N 		-0.42834
N 1.0  		0.010167746507353609 		0.15973108253999413  0.6093905250328621 		Uiso   ? 		N 		-0.42834
N 1.0  		0.8387071345055012 		0.09053881637059574  0.7634973668136897 		Uiso   ? 		N 		-0.42834
N 1.0  		0.1410439514326255 		0.4703601923643145  0.5727989461625286 		Uiso   ? 		N 		-0.42834
N 1.0  		-0.008749641027895327 		0.41343605849445486  0.7979778930568886 		Uiso   ? 		N 		-0.42834
N 1.0  		0.33611723404597893 		0.8273628422808912  0.5996796829480427 		Uiso   ? 		N 		-0.42834
N 1.0  		0.16239277794183243 		0.7446756305820003  0.7532235773616346 		Uiso   ? 		N 		-0.42834
N 1.0  		0.1551884341013179 		0.23898321719501425  0.5993982092644249 		Uiso   ? 		N 		-0.42942
N 1.0  		0.15420871655625173 		0.10697811365197764  0.8109256825033143 		Uiso   ? 		N 		-0.42942
N 1.0  		0.3152114700881167 		0.5802826577681814  0.6231827355301416 		Uiso   ? 		N 		-0.42942
N 1.0  		0.344416475782651 		0.45637452154284036  0.8347102087690311 		Uiso   ? 		N 		-0.42942
N 1.0  		0.4887570196443336 		0.9125036804396899  0.5999611566316607 		Uiso   ? 		N 		-0.42942
N 1.0  		0.4994554639545436 		0.7787810383747179  0.807829471983517 		Uiso   ? 		N 		-0.42942
N 1.0  		0.6520849097131259 		0.2514967121405437  0.6337379986658148 		Uiso   ? 		N 		-0.42942
N 1.0  		0.6750596405732802 		0.12022769653547945  0.835836103503503 		Uiso   ? 		N 		-0.42942
N 1.0  		0.8288747529223024 		0.5829816468740799  0.6027758934678403 		Uiso   ? 		N 		-0.42942
N 1.0  		0.8302060344043173 		0.44582392776523705  0.824717893000594 		Uiso   ? 		N 		-0.42942
N 1.0  		-0.018678309501431345 		0.9107861419177545  0.6293751565697365 		Uiso   ? 		N 		-0.42942
N 1.0  		0.02685141478611547 		0.7974285994700168  0.8541318929386698 		Uiso   ? 		N 		-0.42942
N 1.0  		0.333259581162371 		0.4531848071449603  0.682573682773529 		Uiso   ? 		N 		-0.42996
N 1.0  		0.3315043255827099 		0.21125723819805675  0.8587762087183659 		Uiso   ? 		N 		-0.42996
N 1.0  		0.46801755025759084 		0.7630778290313083  0.6583669459823854 		Uiso   ? 		N 		-0.42996
N 1.0  		0.5037267906597811 		0.5459318873294731  0.8366805245543568 		Uiso   ? 		N 		-0.42996
N 1.0  		0.6629717724730813 		0.11900088330552558  0.6869365248696073 		Uiso   ? 		N 		-0.42996
N 1.0  		0.6770709688124759 		0.8862498773186771  0.8532874718878158 		Uiso   ? 		N 		-0.42996
N 1.0  		0.8129174729859536 		0.4367455098635784  0.6554114723043969 		Uiso   ? 		N 		-0.42996
N 1.0  		0.8501470139398828 		0.22009029345372463  0.8538504192550518 		Uiso   ? 		N 		-0.42996
N 1.0  		0.001284534269748172 		0.7900677200902936  0.6813070511972483 		Uiso   ? 		N 		-0.42996
N 1.0  		0.005709088933339268 		0.5515752281872609  0.8846717876112172 		Uiso   ? 		N 		-0.42996
N 1.0  		0.13552253434503012 		0.09765433310432821  0.6530189459936443 		Uiso   ? 		N 		-0.42996
N 1.0  		0.16258827348844485 		0.8776621847089999  0.8597613666110288 		Uiso   ? 		N 		-0.42996
N 1.0  		0.16021426254349302 		0.3727058592599863  0.672018419637856 		Uiso   ? 		N 		-0.42676
N 1.0  		0.18381107616191045 		0.13175974089704584  0.8877679981310147 		Uiso   ? 		N 		-0.42676
N 1.0  		0.301813584121538 		0.6848071449602513  0.7048101037793472 		Uiso   ? 		N 		-0.42676
N 1.0  		0.35251333986878763 		0.47256845617823146  0.90901926124417 		Uiso   ? 		N 		-0.42676
N 1.0  		0.49436467575053916 		0.03974874865050545  0.6744109459486085 		Uiso   ? 		N 		-0.42676
N 1.0  		0.5274741054635584 		0.8084699185396016  0.8824199981422737 		Uiso   ? 		N 		-0.42676
N 1.0  		0.6446279509489262 		0.3543036608106782  0.7025583143104036 		Uiso   ? 		N 		-0.42676
N 1.0  		0.6975183471103357 		0.14304642261262146  0.8998713665265866 		Uiso   ? 		N 		-0.42676
N 1.0  		0.8324237819659883 		0.7010010795956425  0.6758183143666983 		Uiso   ? 		N 		-0.42676
N 1.0  		0.8784070869537083 		0.4865541269997056  0.9050786296735187 		Uiso   ? 		N 		-0.42676
N 1.0  		-0.023693327826732585 		0.02061046226322505  0.7114247353443689 		Uiso   ? 		N 		-0.42676
N 1.0  		0.014421900277817645 		0.8006183138678968  0.9268928401539098 		Uiso   ? 		N 		-0.42676
N 1.0  		0.13689290200635412 		0.15776818137206794  0.513970946286377 		Uiso   ? 		N 		-0.43560
N 1.0  		-0.014537080628908974 		0.20806752380017668  0.7685638931188129 		Uiso   ? 		N 		-0.43560
N 1.0  		0.3079742245771363 		0.5007851604671705  0.541555367280936 		Uiso   ? 		N 		-0.43560
N 1.0  		0.14652201335099377 		0.5442143488075376  0.7174764195421549 		Uiso   ? 		N 		-0.43560
N 1.0  		0.46853148075270823 		0.8278535675728728  0.5357851567667681 		Uiso   ? 		N 		-0.43560
N 1.0  		0.30743851118036036 		0.8703013053292767  0.7498458931582193 		Uiso   ? 		N 		-0.43560
N 1.0  		0.6462494403259327 		0.16120325841593877  0.5694212619591131 		Uiso   ? 		N 		-0.43560
N 1.0  		0.48673835466525905 		0.21616449111787223  0.7163505248076831 		Uiso   ? 		N 		-0.43560
N 1.0  		0.8072099262695389 		0.495877907547355  0.5236817883711963 		Uiso   ? 		N 		-0.43560
N 1.0  		0.648642767042561 		0.5395524585337128  0.7443571563276691 		Uiso   ? 		N 		-0.43560
N 1.0  		-0.02181250304728627 		0.8322700952007067  0.5637917882867541 		Uiso   ? 		N 		-0.43560
N 1.0  		0.8275228084446308 		0.8879674158406126  0.716631998491301 		Uiso   ? 		N 		-0.43560
N 1.0  		0.4693090312813291 		0.17960545686524684  0.5682953672246414 		Uiso   ? 		N 		-0.43948
N 1.0  		0.31803680523734945 		0.12439886151732261  0.7974149456896528 		Uiso   ? 		N 		-0.43948
N 1.0  		0.6569275626174533 		0.5331730297379528  0.5953168408519646 		Uiso   ? 		N 		-0.43948
N 1.0  		0.47844730993145634 		0.452448719206988  0.7605418931357013 		Uiso   ? 		N 		-0.43948
N 1.0  		0.7994425835756807 		0.8462557660221808  0.5636510514449451 		Uiso   ? 		N 		-0.43948
N 1.0  		0.6563611873622156 		0.7959564235940721  0.7891114720229233 		Uiso   ? 		N 		-0.43948
N 1.0  		-0.010331265296557854 		0.19947983119049956  0.598975998738998 		Uiso   ? 		N 		-0.43948
N 1.0  		0.8267100507407302 		0.13666699381686134  0.7689861036442398 		Uiso   ? 		N 		-0.43948
N 1.0  		0.1312527821817507 		0.5145254686426539  0.5578808409307772 		Uiso   ? 		N 		-0.43948
N 1.0  		-0.0062710002057145 		0.46471685150652664  0.8120515772377861 		Uiso   ? 		N 		-0.43948
N 1.0  		0.3217651631398875 		0.8700559426832859  0.5888429461287518 		Uiso   ? 		N 		-0.43948
N 1.0  		0.14088825634428975 		0.7836882912945333  0.7613863141865551 		Uiso   ? 		N 		-0.43948
N 1.0  		0.6526270672617567 		0.30400431838256947  0.6447154723269148 		Uiso   ? 		N 		-0.44179
N 1.0  		0.6664711971886297 		0.16807341250368046  0.8269696824695376 		Uiso   ? 		N 		-0.44179
N 1.0  		0.8053263423920651 		0.6200314064186869  0.6091090513492442 		Uiso   ? 		N 		-0.44179
N 1.0  		0.8261127539840191 		0.49416036902541954  0.8103627351360785 		Uiso   ? 		N 		-0.44179
N 1.0  		-0.02061381885300201 		0.9596133084699187  0.6444339986432969 		Uiso   ? 		N 		-0.44179
N 1.0  		0.01226278198511016 		0.8413485131023654  0.847095050848221 		Uiso   ? 		N 		-0.44179
N 1.0  		0.13225342236548504 		0.277259789969575  0.604042525044121 		Uiso   ? 		N 		-0.44179
N 1.0  		0.15080984772095862 		0.15457846697418787  0.796570524638799 		Uiso   ? 		N 		-0.44179
N 1.0  		0.3122223074977462 		0.630827362842281  0.6361305249765673 		Uiso   ? 		N 		-0.44179
N 1.0  		0.3329013134305556 		0.5017666110511336  0.824295682475167 		Uiso   ? 		N 		-0.44179
N 1.0  		0.47414431512074395 		0.9576504073019925  0.6043239987277389 		Uiso   ? 		N 		-0.44179
N 1.0  		0.49160309912317834 		0.8280989302188635  0.802199998311158 		Uiso   ? 		N 		-0.44179
N 1.0  		0.12980154771384858 		0.14231033467464912  0.6347231565584776 		Uiso   ? 		N 		-0.43895
N 1.0  		0.15893756865850145 		0.9294337030130533  0.8539911560968607 		Uiso   ? 		N 		-0.43895
N 1.0  		0.31348785028889675 		0.492688193149475  0.672018419637856 		Uiso   ? 		N 		-0.43895
N 1.0  		0.3272971630263788 		0.26106585533418397  0.8686277876449942 		Uiso   ? 		N 		-0.43895
N 1.0  		0.4599920410762167 		0.8082245558936109  0.6431673670670162 		Uiso   ? 		N 		-0.43895
N 1.0  		0.49544944548375675 		0.5952497791736187  0.8382286298142556 		Uiso   ? 		N 		-0.43895
N 1.0  		0.6481289825314664 		0.16071253312395722  0.6725813670050919 		Uiso   ? 		N 		-0.43895
N 1.0  		0.6703139241881902 		0.9360584944548043  0.8617316823963544 		Uiso   ? 		N 		-0.43895
N 1.0  		0.8063641209111498 		0.48483658847777017  0.6428858933833981 		Uiso   ? 		N 		-0.43895
N 1.0  		0.8406845381433299 		0.2691628226518795  0.8586354718765569 		Uiso   ? 		N 		-0.43895
N 1.0  		-0.016443307671031526 		0.8315340072627343  0.6722998933214739 		Uiso   ? 		N 		-0.43895
N 1.0  		0.006807704208357912 		0.6060457355972128  0.8904419981253853 		Uiso   ? 		N 		-0.43895
N 1.0  		0.1493212966086499 		0.42104230052016883  0.6789145248864957 		Uiso   ? 		N 		-0.43855
N 1.0  		0.17147882246592916 		0.17764255569732065  0.8970566296904071 		Uiso   ? 		N 		-0.43855
N 1.0  		0.293707062149563 		0.73191677299048  0.7163505248076831 		Uiso   ? 		N 		-0.43855
N 1.0  		0.34734233448710544 		0.5238492491903033  0.9114117875549226 		Uiso   ? 		N 		-0.43855
N 1.0  		0.4822449122268874 		0.08563156345078025  0.6824329459317201 		Uiso   ? 		N 		-0.43855
N 1.0  		0.5153367466942109 		0.8509176562960056  0.8963529454813622 		Uiso   ? 		N 		-0.43855
N 1.0  		0.6357700763239297 		0.4028854647168515  0.7115654721861779 		Uiso   ? 		N 		-0.43855
N 1.0  		0.6899682828647484 		0.19211895181077634  0.9073304191424623 		Uiso   ? 		N 		-0.43855
N 1.0  		0.8167726983033354 		0.744920993227991  0.683136630140765 		Uiso   ? 		N 		-0.43855
N 1.0  		0.8595598530832645 		0.5287565021101187  0.9125376822893944 		Uiso   ? 		N 		-0.43855
N 1.0  		-0.026715359762535223 		0.07066444204534301  0.7228244195308959 		Uiso   ? 		N 		-0.43855
N 1.0  		0.017463475303274856 		0.8492001177740701  0.9440627348546048 		Uiso   ? 		N 		-0.43855
N 1.0  		0.17471944774894915 		0.2117479634900383  0.5319852620379257 		Uiso   ? 		N 		-0.48839
N 1.0  		0.016537923044309732 		0.2595936794582393  0.7482977878983205 		Uiso   ? 		N 		-0.48839
N 1.0  		0.359801049970896 		0.5559917558150947  0.5499995777894746 		Uiso   ? 		N 		-0.48839
N 1.0  		0.19665771498896512 		0.6011384826773973  0.7233873668981319 		Uiso   ? 		N 		-0.48839
N 1.0  		0.5110058814480979 		-0.113112179801747  0.5447923146425425 		Uiso   ? 		N 		-0.48839
N 1.0  		0.3491644163385993 		0.9269800765531456  0.7367573668699845 		Uiso   ? 		N 		-0.48839
N 1.0  		0.6934278747969864 		0.22156246932966928  0.5637917882867541 		Uiso   ? 		N 		-0.48839
N 1.0  		0.5334501418233736 		0.2743154382176858  0.7214170511128063 		Uiso   ? 		N 		-0.48839
N 1.0  		0.8436629229418602 		0.5483855137893807  0.5426812620154079 		Uiso   ? 		N 		-0.48839
N 1.0  		0.6917005543027936 		0.5954951418196095  0.7311278931976255 		Uiso   ? 		N 		-0.48839
N 1.0  		0.030403576229829532 		-0.1091863774658946  0.5628066303940913 		Uiso   ? 		N 		-0.48839
N 1.0  		0.8751743667055123 		0.9458730002944352  0.7253576826834575 		Uiso   ? 		N 		-0.48839
N 1.0  		0.5149759628234919 		0.24119148100893123  0.5709693672190119 		Uiso   ? 		N 		-0.48791
N 1.0  		0.36424259926020425 		0.18451270978506235  0.790518840441013 		Uiso   ? 		N 		-0.48791
N 1.0  		0.700982062048469 		0.5881342624398862  0.5803987356202132 		Uiso   ? 		N 		-0.48791
N 1.0  		0.5157655413928321 		0.5020119736971244  0.7822153667742834 		Uiso   ? 		N 		-0.48791
N 1.0  		0.8486473117337332 		0.9051428010599667  0.5622436830268555 		Uiso   ? 		N 		-0.48791
N 1.0  		0.7041354253819778 		0.8541073706938856  0.7846078930850361 		Uiso   ? 		N 		-0.48791
N 1.0  		0.028686887543454206 		0.249043085680636  0.5784284198348876 		Uiso   ? 		N 		-0.48791
N 1.0  		0.8547814779868326 		0.17666110511335756  0.7968519983224168 		Uiso   ? 		N 		-0.48791
N 1.0  		0.1770095241373621 		0.5758661301403475  0.5604141040833388 		Uiso   ? 		N 		-0.48791
N 1.0  		0.042703642534312664 		0.5201688095004418  0.8061406298818092 		Uiso   ? 		N 		-0.48791
N 1.0  		0.3663913943970275 		0.9240357248012563  0.5719545251116747 		Uiso   ? 		N 		-0.48791
N 1.0  		0.17719450153514593 		0.8371773481205221  0.7805265246725758 		Uiso   ? 		N 		-0.48791
N 1.0  		0.027451065013819706 		0.01962901167926195  0.6385230512873199 		Uiso   ? 		N 		-0.49030
N 1.0  		0.05056245151753286 		0.892874668760428  0.8276733666785824 		Uiso   ? 		N 		-0.49030
N 1.0  		0.17044153090783418 		0.3366375502993425  0.6174125250159735 		Uiso   ? 		N 		-0.49030
N 1.0  		0.19651612508544208 		0.21199332613602906  0.8036073667292477 		Uiso   ? 		N 		-0.49030
N 1.0  		0.36433615937754765 		0.6887329472961037  0.6366934723438032 		Uiso   ? 		N 		-0.49030
N 1.0  		0.3773150545153662 		0.555746393169104  0.8090961035597977 		Uiso   ? 		N 		-0.49030
N 1.0  		0.5162988199846595 		0.013494945529492592  0.6202272618521532 		Uiso   ? 		N 		-0.49030
N 1.0  		0.5364922851437759 		0.8860045146726864  0.8061406298818092 		Uiso   ? 		N 		-0.49030
N 1.0  		0.6996652267282338 		0.36068308960643836  0.6340194723494327 		Uiso   ? 		N 		-0.49030
N 1.0  		0.7159365589641803 		0.22450682108155856  0.8175403140683363 		Uiso   ? 		N 		-0.49030
N 1.0  		0.845271313381067 		0.678673078810482  0.6200865250103441 		Uiso   ? 		N 		-0.49030
N 1.0  		0.8750480509017255 		0.5537834920011778  0.8143033667067298 		Uiso   ? 		N 		-0.49030
N 1.0  		0.17152097639519892 		0.20365099617234272  0.6435895775924431 		Uiso   ? 		N 		-0.49015
N 1.0  		0.21050376043476304 		0.9870939248208853  0.8579317876675121 		Uiso   ? 		N 		-0.49015
N 1.0  		0.3540438989263435 		0.5461772499754638  0.6534411565190712 		Uiso   ? 		N 		-0.49015
N 1.0  		0.37780090394099275 		0.3187260771420159  0.864264945548916 		Uiso   ? 		N 		-0.49015
N 1.0  		0.50628764551252 		0.8680930415153597  0.6448562091687238 		Uiso   ? 		N 		-0.49015
N 1.0  		0.5452259054679334 		0.6531553636274414  0.846109892955558 		Uiso   ? 		N 		-0.49015
N 1.0  		0.6936051744779244 		0.21469231524192758  0.6587891565078123 		Uiso   ? 		N 		-0.49015
N 1.0  		0.7212185737248791 		0.9949455294925901  0.863983471865298 		Uiso   ? 		N 		-0.49015
N 1.0  		0.8504121438652771 		0.5444597114535283  0.6509078933665097 		Uiso   ? 		N 		-0.49015
N 1.0  		0.8886295993671416 		0.32510550593777604  0.8697536823794659 		Uiso   ? 		N 		-0.49015
N 1.0  		0.024594662379090693 		0.8842869761507509  0.6541448407281161 		Uiso   ? 		N 		-0.49015
N 1.0  		0.05343615742991231 		0.6597801550691923  0.875664629735443 		Uiso   ? 		N 		-0.49015
N 1.0  		0.19189484131024748 		0.47134164294827763  0.6977732616888984 		Uiso   ? 		N 		-0.48872
N 1.0  		0.21912158310396268 		0.233830601629208  0.908878524402361 		Uiso   ? 		N 		-0.48872
N 1.0  		0.33982304575896916 		0.7922759839042105  0.7112839985025601 		Uiso   ? 		N 		-0.48872
N 1.0  		0.4002732777107929 		0.5812641083521446  0.9071896823006532 		Uiso   ? 		N 		-0.48872
N 1.0  		0.5258239667221162 		0.13666699381686134  0.699884314316033 		Uiso   ? 		N 		-0.48872
N 1.0  		0.5629947814319809 		0.9041613504760037  0.909722945453215 		Uiso   ? 		N 		-0.48872
N 1.0  		0.684828053000517 		0.46275395033860045  0.7097358932426613 		Uiso   ? 		N 		-0.48872
N 1.0  		0.7381587036063217 		0.24855236038865441  0.914367261232911 		Uiso   ? 		N 		-0.48872
N 1.0  		0.8625687860812675 		0.8020904897438415  0.6950992616945278 		Uiso   ? 		N 		-0.48872
N 1.0  		0.9021269213079736 		0.5837177348120522  0.9291446296228535 		Uiso   ? 		N 		-0.48872
N 1.0  		0.020969067843778368 		0.12906075179114734  0.7164912616494922 		Uiso   ? 		N 		-0.48872
N 1.0  		0.06536919070476588 		0.9093139660418098  0.9398406296003355 		Uiso   ? 		N 		-0.48872
N 1.0  		0.2588996589018661 		0.0583963097458043  0.5404294725464642 		Uiso   ? 		N 		-0.64579
N 1.0  		0.10156161840965633 		0.11090391598783003  0.7305649458303896 		Uiso   ? 		N 		-0.64579
N 1.0  		0.4163746470056803 		0.3822750024536265  0.5225558936367245 		Uiso   ? 		N 		-0.64579
N 1.0  		0.2394499990218027 		0.4215330258121504  0.7488607352655563 		Uiso   ? 		N 		-0.64579
N 1.0  		0.6008123022337499 		0.7311806850525077  0.5456367356933963 		Uiso   ? 		N 		-0.64579
N 1.0  		0.4320761629344275 		0.7689665325350868  0.7329574721411422 		Uiso   ? 		N 		-0.64579
N 1.0  		0.7448688383504298 		0.047354990676219455  0.530296419936218 		Uiso   ? 		N 		-0.64579
N 1.0  		0.5869743401318323 		0.09789969575031898  0.7490014721073653 		Uiso   ? 		N 		-0.64579
N 1.0  		0.929157420951075 		0.39086269506330357  0.5459182093770143 		Uiso   ? 		N 		-0.64579
N 1.0  		0.7734952301149172 		0.4445971145352832  0.7440756826440512 		Uiso   ? 		N 		-0.64579
N 1.0  		0.06895771155479524 		0.709098046913338  0.5263557883655668 		Uiso   ? 		N 		-0.64579
N 1.0  		0.9190203039771495 		0.764550004907253  0.7577271562995218 		Uiso   ? 		N 		-0.64579
N 1.0  		0.0884983017543094 		0.07925213465502012  0.5698434724845401 		Uiso   ? 		N 		-0.64427
N 1.0  		0.9420768265569396 		0.026989891058985183  0.7895336825483502 		Uiso   ? 		N 		-0.64427
N 1.0  		0.25626959198126775 		0.42202375110413193  0.5765988408913709 		Uiso   ? 		N 		-0.64427
N 1.0  		0.07831060653026696 		0.33639218765335166  0.7709564194295654 		Uiso   ? 		N 		-0.64427
N 1.0  		0.416147710671571 		0.7468838943959173  0.5688583145918772 		Uiso   ? 		N 		-0.64427
N 1.0  		0.2688952026561567 		0.6882422220041222  0.7813709457234296 		Uiso   ? 		N 		-0.64427
N 1.0  		0.5943739845260148 		0.08465011286681716  0.5909539987558863 		Uiso   ? 		N 		-0.64427
N 1.0  		0.4144238958794068 		0.007360879379723231  0.7649047352317795 		Uiso   ? 		N 		-0.64427
N 1.0  		0.7566969007710872 		0.4126999705564825  0.5746285251060452 		Uiso   ? 		N 		-0.64427
N 1.0  		0.6005614724861128 		0.3562665619786044  0.7771488404691603 		Uiso   ? 		N 		-0.64427
N 1.0  		0.9209586214356693 		0.7459024438119541  0.5902503145468414 		Uiso   ? 		N 		-0.64427
N 1.0  		0.7633334407984287 		0.6830896064383158  0.7688453668024309 		Uiso   ? 		N 		-0.64427
N 1.0  		0.2633185650265255 		0.18623024830699775  0.6213531565866249 		Uiso   ? 		N 		-0.64312
N 1.0  		0.2668580821683959 		0.05348905682598882  0.8217624193226055 		Uiso   ? 		N 		-0.64312
N 1.0  		0.4066289267520139 		0.5064285013249583  0.5996796829480427 		Uiso   ? 		N 		-0.64312
N 1.0  		0.43492703068921373 		0.3832564530375896  0.8029036825202028 		Uiso   ? 		N 		-0.64312
N 1.0  		0.5925452155635426 		0.8536166454019041  0.6220568407956698 		Uiso   ? 		N 		-0.64312
N 1.0  		0.6090795025629465 		0.7213661792128767  0.8144441035485387 		Uiso   ? 		N 		-0.64312
N 1.0  		0.743903274999098 		0.1788693689272745  0.6065757881966825 		Uiso   ? 		N 		-0.64312
N 1.0  		0.7757086273527147 		0.05888703503778585  0.8166958930174824 		Uiso   ? 		N 		-0.64312
N 1.0  		0.9327703545006558 		0.5272843262341742  0.6297973670951634 		Uiso   ? 		N 		-0.64312
N 1.0  		0.9420623803951599 		0.39159878300127593  0.8390730508651093 		Uiso   ? 		N 		-0.64312
N 1.0  		0.07179937605969916 		0.8371773481205221  0.6039017882023121 		Uiso   ? 		N 		-0.64312
N 1.0  		0.10109651331364161 		0.7194032780449505  0.8123330509214042 		Uiso   ? 		N 		-0.64312
N 1.0  		0.4178509594431797 		0.3741780351359309  0.6475302091630943 		Uiso   ? 		N 		-0.64578
N 1.0  		0.43735168453434975 		0.1513887525763078  0.846813577164603 		Uiso   ? 		N 		-0.64578
N 1.0  		0.5855148440109935 		0.7137599371871627  0.6624483143948456 		Uiso   ? 		N 		-0.64578
N 1.0  		0.6117735876484285 		0.48876239081362255  0.8549763139895236 		Uiso   ? 		N 		-0.64578
N 1.0  		0.7479487852762282 		0.04416527627833939  0.6534411565190712 		Uiso   ? 		N 		-0.64578
N 1.0  		0.7782916874180346 		0.8239277652370204  0.8599021034528377 		Uiso   ? 		N 		-0.64578
N 1.0  		0.920964269974601 		0.37957601334772795  0.6727221038469009 		Uiso   ? 		N 		-0.64578
N 1.0  		0.9527829485839955 		0.16144862106192956  0.8790423139388583 		Uiso   ? 		N 		-0.64578
N 1.0  		0.08115946179102707 		0.7088526842673472  0.6503449459992738 		Uiso   ? 		N 		-0.64578
N 1.0  		0.10232723891540127 		0.48557267641574253  0.8562429455658043 		Uiso   ? 		N 		-0.64578
N 1.0  		0.24946443623684728 		0.04760035332221023  0.6621668407112278 		Uiso   ? 		N 		-0.64578
N 1.0  		0.2733557757490961 		0.8182844243792325  0.8601835771364557 		Uiso   ? 		N 		-0.64578
N 1.0  		0.24792957586433972 		0.299097065462754  0.7029805248358305 		Uiso   ? 		N 		-0.64460
N 1.0  		0.29189074249599006 		0.07508096967317696  0.9022638928373391 		Uiso   ? 		N 		-0.64460
N 1.0  		0.41360419142151617 		0.629600549612327  0.6910178932820676 		Uiso   ? 		N 		-0.64460
N 1.0  		0.454215979887022 		0.4095102561586025  0.8977603138994519 		Uiso   ? 		N 		-0.64460
N 1.0  		0.5838003628115886 		0.965747374619688  0.7031212616776396 		Uiso   ? 		N 		-0.64460
N 1.0  		0.6312623013827674 		0.7495828835018158  0.8970566296904071 		Uiso   ? 		N 		-0.64460
N 1.0  		0.7561227341400147 		0.29468053783492004  0.6939733669600561 		Uiso   ? 		N 		-0.64460
N 1.0  		0.801902346578253 		0.08195112376091865  0.9091599980859789 		Uiso   ? 		N 		-0.64460
N 1.0  		0.9181303968455321 		0.6322995387182255  0.717617156383964 		Uiso   ? 		N 		-0.64460
N 1.0  		0.9709462566932292 		0.41834331141427034  0.9358999980296843 		Uiso   ? 		N 		-0.64460
N 1.0  		0.07763117707695294 		0.9623122975758172  0.6876402090786522 		Uiso   ? 		N 		-0.64460
N 1.0  		0.1139908409499088 		0.7358425753263325  0.9084563138769342 		Uiso   ? 		N 		-0.64460
N 1.0  		0.35657060185973755 		0.05569732063990579  0.5512662093657553 		Uiso   ? 		N 		-0.49497
N 1.0  		0.19861036495027556 		0.10526057513004221  0.7191652616438626 		Uiso   ? 		N 		-0.49497
N 1.0  		0.5154520083792575 		0.38153891451565414  0.5431034725408348 		Uiso   ? 		N 		-0.49497
N 1.0  		0.3453029741873407 		0.42202375110413193  0.7328167352993332 		Uiso   ? 		N 		-0.49497
N 1.0  		0.6979115133654972 		0.7294631465305722  0.5592882093488669 		Uiso   ? 		N 		-0.49497
N 1.0  		0.5327219683049125 		0.7662675434291885  0.7174764195421549 		Uiso   ? 		N 		-0.49497
N 1.0  		0.8438059247194305 		0.042938463048385514  0.542259051489981 		Uiso   ? 		N 		-0.49497
N 1.0  		0.6912172043321826 		0.09814505839630976  0.7347870510846589 		Uiso   ? 		N 		-0.49497
N 1.0  		0.02161837140854192 		0.3862008047894789  0.5615399988178106 		Uiso   ? 		N 		-0.49497
N 1.0  		0.8720161337621066 		0.44189812542938467  0.7353499984518947 		Uiso   ? 		N 		-0.49497
N 1.0  		0.17139556986332438 		0.7125331239572088  0.5367703146594309 		Uiso   ? 		N 		-0.49497
N 1.0  		0.017586528364156362 		0.7606242025714006  0.7456237879039499 		Uiso   ? 		N 		-0.49497
N 1.0  		0.17448876171094518 		0.07189125527529688  0.564917683021226 		Uiso   ? 		N 		-0.49452
N 1.0  		0.03963754115031518 		0.02232800078516047  0.7981186298986976 		Uiso   ? 		N 		-0.49452
N 1.0  		0.36589924680356867 		0.4249681028560212  0.5681546303828323 		Uiso   ? 		N 		-0.49452
N 1.0  		0.17710094141780247 		0.33295711060948086  0.7791191562544859 		Uiso   ? 		N 		-0.49452
N 1.0  		0.5076717127316225 		0.7412405535381293  0.5678731566992145 		Uiso   ? 		N 		-0.49452
N 1.0  		0.3690502889911181 		0.6845617823142606  0.7912225246500578 		Uiso   ? 		N 		-0.49452
N 1.0  		0.7010440510354388 		0.08465011286681716  0.5788506303603145 		Uiso   ? 		N 		-0.49452
N 1.0  		0.5188880478749346 		0.009323780547649426  0.784889366768654 		Uiso   ? 		N 		-0.49452
N 1.0  		0.8473621445189727 		0.40533909117675926  0.5711101040608209 		Uiso   ? 		N 		-0.49452
N 1.0  		0.7026553632405836 		0.357738737854549  0.7898151562319681 		Uiso   ? 		N 		-0.49452
N 1.0  		0.031264591037887646 		0.7522818726077142  0.5827912619309658 		Uiso   ? 		N 		-0.49452
N 1.0  		0.8637996253420162 		0.6808813426243989  0.7930521035935745 		Uiso   ? 		N 		-0.49452
N 1.0  		0.3609983056072448 		0.18524879772303465  0.6345824197166686 		Uiso   ? 		N 		-0.49368
N 1.0  		0.37356101802325203 		0.05397978211797037  0.8097997877688425 		Uiso   ? 		N 		-0.49368
N 1.0  		0.5090996544059754 		0.5103543036608107  0.6123459987108505 		Uiso   ? 		N 		-0.49368
N 1.0  		0.5350909146470231 		0.3812935518696634  0.8036073667292477 		Uiso   ? 		N 		-0.49368
N 1.0  		0.6931364010119703 		0.858033173029738  0.6309232618296352 		Uiso   ? 		N 		-0.49368
N 1.0  		0.7182272359725719 		0.7250466189027384  0.8109256825033143 		Uiso   ? 		N 		-0.49368
N 1.0  		0.8490224927573102 		0.18426734713907156  0.621493893428434 		Uiso   ? 		N 		-0.49368
N 1.0  		0.8777608511389056 		0.05815094709981353  0.8152885245993926 		Uiso   ? 		N 		-0.49368
N 1.0  		0.03427209547795523 		0.5275296888801649  0.637678630236466 		Uiso   ? 		N 		-0.49368
N 1.0  		0.043702075231076665 		0.3891451565413682  0.8228883140570773 		Uiso   ? 		N 		-0.49368
N 1.0  		0.17875879020112434 		0.8462557660221808  0.6182569460668275 		Uiso   ? 		N 		-0.49368
N 1.0  		0.19478708406526846 		0.7159682010010797  0.8043110509382925 		Uiso   ? 		N 		-0.49368
N 1.0  		0.5118854977488647 		0.3727058592599863  0.643448840750634 		Uiso   ? 		N 		-0.49259
N 1.0  		0.5435814965993783 		0.15433310432819708  0.85272452452058 		Uiso   ? 		N 		-0.49259
N 1.0  		0.6944917542165695 		0.7196486406909413  0.6514708407337455 		Uiso   ? 		N 		-0.49259
N 1.0  		0.7165969812977511 		0.48974384139758564  0.8624353666053992 		Uiso   ? 		N 		-0.49259
N 1.0  		0.8457840749612606 		0.043919913632348616  0.6449969460105328 		Uiso   ? 		N 		-0.49259
N 1.0  		0.8836868128934814 		0.8239277652370204  0.8686277876449942 		Uiso   ? 		N 		-0.49259
N 1.0  		0.025285324260201025 		0.3790852880557464  0.6558336828298239 		Uiso   ? 		N 		-0.49259
N 1.0  		0.05732529066477282 		0.16267543429188341  0.8824199981422737 		Uiso   ? 		N 		-0.49259
N 1.0  		0.1729200257459924 		0.7019825301796055  0.6407748407562635 		Uiso   ? 		N 		-0.49259
N 1.0  		0.20925146256543484 		0.48778094022965945  0.8539911560968607 		Uiso   ? 		N 		-0.49259
N 1.0  		0.3531267709882256 		0.04710962803022868  0.6535818933608802 		Uiso   ? 		N 		-0.49259
N 1.0  		0.3818002999508685 		0.8209834134851312  0.8627168402890172 		Uiso   ? 		N 		-0.49259
N 1.0  		0.3476837535772263 		0.2941898125429385  0.7107210511353241 		Uiso   ? 		N 		-0.49379
N 1.0  		0.3955290055247841 		0.07581705761114928  0.9121154717639675 		Uiso   ? 		N 		-0.49379
N 1.0  		0.5220487156232886 		0.6322995387182255  0.6991806301069882 		Uiso   ? 		N 		-0.49379
N 1.0  		0.5624239421938806 		0.41343605849445486  0.9080341033515071 		Uiso   ? 		N 		-0.49379
N 1.0  		0.6853049264942395 		0.9647659240357249  0.7079063142991446 		Uiso   ? 		N 		-0.49379
N 1.0  		0.7374263747569315 		0.751545784669742  0.9100044191368328 		Uiso   ? 		N 		-0.49379
N 1.0  		0.8653538014862002 		0.3027775051526156  0.7100173669262793 		Uiso   ? 		N 		-0.49379
N 1.0  		0.9003991785028582 		0.080478947884974  0.9277372612047636 		Uiso   ? 		N 		-0.49379
N 1.0  		0.014793007304420958 		0.6300912749043086  0.7233873668981319 		Uiso   ? 		N 		-0.49379
N 1.0  		0.06668437014908773 		0.41343605849445486  0.9389962085494816 		Uiso   ? 		N 		-0.49379
N 1.0  		0.18758952535357581 		0.9701639022475219  0.6953807353781458 		Uiso   ? 		N 		-0.49379
N 1.0  		0.21555882217746467 		0.7294631465305722  0.9074711559842713 		Uiso   ? 		N 		-0.49379
N 1.0  		0.2995463782157519 		0.046618902738247134  0.5574586304053503 		Uiso   ? 		N 		-0.39069
N 1.0  		0.14211852731009345 		0.09937187162626364  0.7136765248133126 		Uiso   ? 		N 		-0.39069
N 1.0  		0.46266879055901466 		0.3707429580920601  0.5257928409983309 		Uiso   ? 		N 		-0.39069
N 1.0  		0.289954600199407 		0.41417214643242717  0.745201577378523 		Uiso   ? 		N 		-0.39069
N 1.0  		0.6410516364486726 		0.7228383550888213  0.5639325251285631 		Uiso   ? 		N 		-0.39069
N 1.0  		0.4754371110434287 		0.7596427519874375  0.7155061037568292 		Uiso   ? 		N 		-0.39069
N 1.0  		0.7912768640397971 		0.03435077043870842  0.5270594725746116 		Uiso   ? 		N 		-0.39069
N 1.0  		0.6342827911016456 		0.08882127784866033  0.7430905247513884 		Uiso   ? 		N 		-0.39069
N 1.0  		0.9665181796437212 		0.37761311217980176  0.5663250514393157 		Uiso   ? 		N 		-0.39069
N 1.0  		0.8173797666048739 		0.4367455098635784  0.728313156361446 		Uiso   ? 		N 		-0.39069
N 1.0  		0.116879561319013 		0.7012464422416332  0.5257928409983309 		Uiso   ? 		N 		-0.39069
N 1.0  		0.967415277531195 		0.7542447737756404  0.7629344194464539 		Uiso   ? 		N 		-0.39069
N 1.0  		0.12096946533741705 		0.059623122975758176  0.5499995777894746 		Uiso   ? 		N 		-0.39017
N 1.0  		-0.018015355387811155 		0.014967121405437237  0.8055776825145733 		Uiso   ? 		N 		-0.39017
N 1.0  		0.30958702999028387 		0.41858867406026107  0.5733618935297644 		Uiso   ? 		N 		-0.39017
N 1.0  		0.12272520787806776 		0.32535086858376683  0.7654676825990154 		Uiso   ? 		N 		-0.39017
N 1.0  		0.4511599586997851 		0.7255373441947198  0.5539402093601259 		Uiso   ? 		N 		-0.39017
N 1.0  		0.3121246733834289 		0.6769555402885465  0.796148314113372 		Uiso   ? 		N 		-0.39017
N 1.0  		0.6457132722932007 		0.08023358523898323  0.5871541040270439 		Uiso   ? 		N 		-0.39017
N 1.0  		0.4648146149209782 		0.0014721758759446463  0.7696897878532847 		Uiso   ? 		N 		-0.39017
N 1.0  		0.7914725869043877 		0.392580233585239  0.5571771567217323 		Uiso   ? 		N 		-0.39017
N 1.0  		0.6437099304227842 		0.34694278143095497  0.7933335772771924 		Uiso   ? 		N 		-0.39017
N 1.0  		-0.026307292709637886 		0.7429580920600648  0.5884207356033248 		Uiso   ? 		N 		-0.39017
N 1.0  		0.8118029506661864 		0.6754833644126019  0.7782747352036322 		Uiso   ? 		N 		-0.39017
N 1.0  		0.3027560819972985 		0.17543429188340368  0.6402118933890276 		Uiso   ? 		N 		-0.39544
N 1.0  		0.31950518031499137 		0.049563254490136426  0.8209179982717516 		Uiso   ? 		N 		-0.39544
N 1.0  		0.4540512598578603 		0.495877907547355  0.5977093671627172 		Uiso   ? 		N 		-0.39544
N 1.0  		0.47881804365605896 		0.3707429580920601  0.7926298930681476 		Uiso   ? 		N 		-0.39544
N 1.0  		0.6366751115712609 		0.8462557660221808  0.6414785249653083 		Uiso   ? 		N 		-0.39544
N 1.0  		0.6608437706747916 		0.7169496515850428  0.8133182088140669 		Uiso   ? 		N 		-0.39544
N 1.0  		0.7927889675886669 		0.16954558837962508  0.6065757881966825 		Uiso   ? 		N 		-0.39544
N 1.0  		0.8210717974261303 		0.04931789184414565  0.80740726145809 		Uiso   ? 		N 		-0.39544
N 1.0  		-0.022473899302836498 		0.5194327215624693  0.6454191565359597 		Uiso   ? 		N 		-0.39544
N 1.0  		-0.005367880477308351 		0.3862008047894789  0.8394952613905363 		Uiso   ? 		N 		-0.39544
N 1.0  		0.12158549392971418 		0.8317793699087251  0.6067165250384915 		Uiso   ? 		N 		-0.39544
N 1.0  		0.1366411473456593 		0.7012464422416332  0.7943187351698553 		Uiso   ? 		N 		-0.39544
N 1.0  		0.45443397261426066 		0.3572480125625675  0.6314862091968712 		Uiso   ? 		N 		-0.39164
N 1.0  		0.4886997699243837 		0.14868976347040927  0.8444210508538504 		Uiso   ? 		N 		-0.39164
N 1.0  		0.6371652299868057 		0.7108155854352733  0.6594928407168572 		Uiso   ? 		N 		-0.39164
N 1.0  		0.6596954374126464 		0.4809107861419178  0.863983471865298 		Uiso   ? 		N 		-0.39164
N 1.0  		0.7881047855545905 		0.03140641868681912  0.6361305249765673 		Uiso   ? 		N 		-0.39164
N 1.0  		0.8295323671489241 		0.8180390617332418  0.8593391560856017 		Uiso   ? 		N 		-0.39164
N 1.0  		-0.025721114721733968 		0.377367749533811  0.6710332617451931 		Uiso   ? 		N 		-0.39164
N 1.0  		0.0018301651953739617 		0.15580528020414175  0.8910049454926212 		Uiso   ? 		N 		-0.39164
N 1.0  		0.11518379527130587 		0.6902051231720484  0.6328935776149609 		Uiso   ? 		N 		-0.39164
N 1.0  		0.1521790954762806 		0.4811561487879086  0.8479394718990748 		Uiso   ? 		N 		-0.39164
N 1.0  		0.2996097957606569 		0.0412209245264501  0.6631519986038905 		Uiso   ? 		N 		-0.39164
N 1.0  		0.3228636647559171 		0.8119049955834725  0.8684870508031852 		Uiso   ? 		N 		-0.39164
N 1.0  		0.2905368501743598 		0.2848660319952891  0.717054209016728 		Uiso   ? 		N 		-0.38884
N 1.0  		0.34027923957314693 		0.06943762881538915  0.9119747349221585 		Uiso   ? 		N 		-0.38884
N 1.0  		0.4657934398780203 		0.6251840219844932  0.6920030511747304 		Uiso   ? 		N 		-0.38884
N 1.0  		0.5060700584123158 		0.40484836588477774  0.8997306296847776 		Uiso   ? 		N 		-0.38884
N 1.0  		0.6282390358819737 		0.9534792423201492  0.7162097879658742 		Uiso   ? 		N 		-0.38884
N 1.0  		0.677484229768349 		0.741731278830111  0.9104266296622597 		Uiso   ? 		N 		-0.38884
N 1.0  		0.8072342576351348 		0.2932083619589754  0.7036842090448754 		Uiso   ? 		N 		-0.38884
N 1.0  		0.8514343073076582 		0.07434488173520463  0.9105673665040687 		Uiso   ? 		N 		-0.38884
N 1.0  		0.9578854885018195 		0.6183138678967515  0.7349277879264678 		Uiso   ? 		N 		-0.38884
N 1.0  		1.0120989691423747 		0.40460300323878695  0.9526476822049523 		Uiso   ? 		N 		-0.38884
N 1.0  		0.13205273291589686 		0.9610854843458633  0.6845439985588547 		Uiso   ? 		N 		-0.38884
N 1.0  		0.15972852677685542 		0.7223476297968398  0.9007157875774405 		Uiso   ? 		N 		-0.38884
N 1.0  		0.5161217476216996 		0.24560800863676513  0.5163634725971296 		Uiso   ? 		N 		-0.43605
N 1.0  		0.34251592960449384 		0.2868289331632153  0.7663121036498693 		Uiso   ? 		N 		-0.43605
N 1.0  		0.6460475496363871 		0.5721856904504858  0.5390221041283746 		Uiso   ? 		N 		-0.43605
N 1.0  		0.49080569685296954 		0.6131612523309452  0.7459052615875679 		Uiso   ? 		N 		-0.43605
N 1.0  		0.8472885007932845 		-0.0890666404946511  0.5087636831394449 		Uiso   ? 		N 		-0.43605
N 1.0  		0.6780274748979481 		0.9544606929041124  0.7654676825990154 		Uiso   ? 		N 		-0.43605
N 1.0  		-0.023027402938252603 		0.2335852389832172  0.5317037883543079 		Uiso   ? 		N 		-0.43605
N 1.0  		0.8223821562694771 		0.28143095495141823  0.7494236826327922 		Uiso   ? 		N 		-0.43605
N 1.0  		0.17177180614283616 		0.578565119246246  0.5045415778851756 		Uiso   ? 		N 		-0.43605
N 1.0  		0.02736279681729542 		0.6305820001962902  0.7799635773053398 		Uiso   ? 		N 		-0.43605
N 1.0  		0.31225119982130556 		-0.09839042104230053  0.5194596831169269 		Uiso   ? 		N 		-0.43605
N 1.0  		0.14495952654495148 		0.9444008244184906  0.7384462089716922 		Uiso   ? 		N 		-0.43605
N 1.0  		0.3408048894570503 		0.2787319658455197  0.5995389461062338 		Uiso   ? 		N 		-0.43482
N 1.0  		0.17625917773135358 		0.1982530179605457  0.7440756826440512 		Uiso   ? 		N 		-0.43482
N 1.0  		0.4854929555837417 		0.5893610756698401  0.586731893501617 		Uiso   ? 		N 		-0.43482
N 1.0  		0.316596998190188 		0.5248306997742663  0.7661713668080603 		Uiso   ? 		N 		-0.43482
N 1.0  		0.6818147863625286 		0.9412111100206105  0.6134718934453224 		Uiso   ? 		N 		-0.43482
N 1.0  		0.5081190442728851 		0.8700559426832859  0.7495644194746012 		Uiso   ? 		N 		-0.43482
N 1.0  		0.8170430221317053 		0.2524781627245068  0.5896873671796056 		Uiso   ? 		N 		-0.43482
N 1.0  		0.6632232351657307 		0.20365099617234272  0.7667343141752962 		Uiso   ? 		N 		-0.43482
N 1.0  		0.013828677518080257 		0.6077632741191481  0.615301472388839 		Uiso   ? 		N 		-0.43482
N 1.0  		0.8626226917243569 		0.5459318873294731  0.7570234720904768 		Uiso   ? 		N 		-0.43482
N 1.0  		0.15030416323763213 		0.9210913730493671  0.5879985250778978 		Uiso   ? 		N 		-0.43482
N 1.0  		-0.01623680701460084 		0.8599960741976642  0.7875633667630245 		Uiso   ? 		N 		-0.43482
N 1.0  		0.31671177291424496 		0.031651781332809895  0.6055906303040197 		Uiso   ? 		N 		-0.43469
N 1.0  		0.3579857532482242 		0.9127490430856807  0.8463913666391761 		Uiso   ? 		N 		-0.43469
N 1.0  		0.5127201843384465 		0.37565021101187557  0.5896873671796056 		Uiso   ? 		N 		-0.43469
N 1.0  		0.503170478917416 		0.2299047992933556  0.8235919982661222 		Uiso   ? 		N 		-0.43469
N 1.0  		0.6497479724534572 		0.7019825301796055  0.6088275776656261 		Uiso   ? 		N 		-0.43469
N 1.0  		0.6886441921385897 		0.5736578663264306  0.835836103503503 		Uiso   ? 		N 		-0.43469
N 1.0  		0.8528643104849588 		0.05128079301207184  0.5922206303321671 		Uiso   ? 		N 		-0.43469
N 1.0  		0.8425901812493619 		0.9019530866620866  0.8264067351023016 		Uiso   ? 		N 		-0.43469
N 1.0  		-0.019267717907206716 		0.3690254195701247  0.6155829460724569 		Uiso   ? 		N 		-0.43469
N 1.0  		0.04471578202757702 		0.25517715183040535  0.8569466297748493 		Uiso   ? 		N 		-0.43469
N 1.0  		0.18022154906486812 		0.7110609480812642  0.5898281040214145 		Uiso   ? 		N 		-0.43469
N 1.0  		0.1668053535736259 		0.5631072725488272  0.8240142087915491 		Uiso   ? 		N 		-0.43469
N 1.0  		0.48370887233058846 		0.2232800078516047  0.672018419637856 		Uiso   ? 		N 		-0.43414
N 1.0  		0.5083122186735382 		0.9966630680145256  0.8462506297973671 		Uiso   ? 		N 		-0.43414
N 1.0  		0.6781030174586733 		0.5780743939542644  0.6873587353950343 		Uiso   ? 		N 		-0.43414
N 1.0  		0.6849700485310743 		0.33639218765335166  0.8455469455883222 		Uiso   ? 		N 		-0.43414
N 1.0  		0.8109902419712076 		0.8901756796545295  0.6623075775530367 		Uiso   ? 		N 		-0.43414
N 1.0  		0.8619506313359555 		0.6754833644126019  0.8459691561137491 		Uiso   ? 		N 		-0.43414
N 1.0  		0.022294587127872523 		0.24560800863676513  0.6943955774854831 		Uiso   ? 		N 		-0.43414
N 1.0  		0.0014786335834588125 		-0.0017175385219354207  0.8762275771026788 		Uiso   ? 		N 		-0.43414
N 1.0  		0.14171807332397474 		0.5486308764353716  0.6645593670219804 		Uiso   ? 		N 		-0.43414
N 1.0  		0.17285761444810038 		0.32829522033565617  0.8447025245374683 		Uiso   ? 		N 		-0.43414
N 1.0  		0.34352762390696817 		0.9110315045637453  0.6927067353837753 		Uiso   ? 		N 		-0.43414
N 1.0  		0.3345453813221438 		0.6627245068210816  0.846109892955558 		Uiso   ? 		N 		-0.43414
N 1.0  		0.5045229916900325 		0.4880263028756503  0.6668111564909239 		Uiso   ? 		N 		-0.43408
N 1.0  		0.541726139775418 		0.2662184708999902  0.8774942086789597 		Uiso   ? 		N 		-0.43408
N 1.0  		0.656784333521905 		0.8133771714594171  0.6820107354062932 		Uiso   ? 		N 		-0.43408
N 1.0  		0.7059309193719835 		0.6001570320934342  0.881153366565993 		Uiso   ? 		N 		-0.43408
N 1.0  		0.8526190646261863 		0.16341152222985575  0.672018419637856 		Uiso   ? 		N 		-0.43408
N 1.0  		0.9024300498317085 		0.9451369123564629  0.8969158928485982 		Uiso   ? 		N 		-0.43408
N 1.0  		-0.021403624740320315 		0.47354990676219455  0.7046693669375381 		Uiso   ? 		N 		-0.43408
N 1.0  		0.018980399453119606 		0.25640396506035923  0.9109895770294956 		Uiso   ? 		N 		-0.43408
N 1.0  		0.17585150066434502 		0.829816468740799  0.6628705249202725 		Uiso   ? 		N 		-0.43408
N 1.0  		0.1979696806993036 		0.590587888899794  0.869472208695848 		Uiso   ? 		N 		-0.43408
N 1.0  		0.31190562540025557 		0.14231033467464912  0.6867957880277983 		Uiso   ? 		N 		-0.43408
N 1.0  		0.3550132119815701 		0.9191284718814409  0.8995898928429688 		Uiso   ? 		N 		-0.43408
N 1.0  		0.4156025500230468 		0.01226813229953872  0.5286075778345103 		Uiso   ? 		N 		-0.63081
N 1.0  		0.2517560058332629 		0.05643340857787811  0.7423868405423436 		Uiso   ? 		N 		-0.63081
N 1.0  		0.5891832900706553 		0.3513593090587889  0.5511254725239464 		Uiso   ? 		N 		-0.63081
N 1.0  		0.4189925889104583 		0.38963588183334974  0.727890945836019 		Uiso   ? 		N 		-0.63081
N 1.0  		0.7516464813203045 		0.6830896064383158  0.536066630450386 		Uiso   ? 		N 		-0.63081
N 1.0  		0.5966347139549123 		0.727500245362646  0.7406979984406358 		Uiso   ? 		N 		-0.63081
N 1.0  		0.9213467554130235 		0.01570320934340956  0.547747788320531 		Uiso   ? 		N 		-0.63081
N 1.0  		0.7623393417416501 		0.062322112081656694  0.7367573668699845 		Uiso   ? 		N 		-0.63081
N 1.0  		0.07646857596208434 		0.35013249582883504  0.5281853673090835 		Uiso   ? 		N 		-0.63081
N 1.0  		0.9269603040600269 		0.3945431347531652  0.7591345247176116 		Uiso   ? 		N 		-0.63081
N 1.0  		0.2483142041396651 		0.6823535185003436  0.5433849462244528 		Uiso   ? 		N 		-0.63081
N 1.0  		0.08706568546300414 		0.7240651683187752  0.7329574721411422 		Uiso   ? 		N 		-0.63081
N 1.0  		0.23909176361502102 		0.04342918834036706  0.5944724198011108 		Uiso   ? 		N 		-0.63319
N 1.0  		0.08665669349704919 		0.9701639022475219  0.773208208898509 		Uiso   ? 		N 		-0.63319
N 1.0  		0.43285907003393487 		0.38252036509961723  0.5691397882754952 		Uiso   ? 		N 		-0.63319
N 1.0  		0.25207429479774524 		0.302286779860634  0.7813709457234296 		Uiso   ? 		N 		-0.63319
N 1.0  		0.5711377274603384 		0.7100794974973011  0.5972871566372902 		Uiso   ? 		N 		-0.63319
N 1.0  		0.424820348255772 		0.6384336048679949  0.768000945751577 		Uiso   ? 		N 		-0.63319
N 1.0  		0.7671539135764868 		0.04220237511041319  0.5777247356258427 		Uiso   ? 		N 		-0.63319
N 1.0  		0.5950429125143881 		0.9797330454411621  0.7781339983618232 		Uiso   ? 		N 		-0.63319
N 1.0  		0.9088564854827471 		0.3685346942781431  0.597990840846335 		Uiso   ? 		N 		-0.63319
N 1.0  		0.766616252335752 		0.316517813328099  0.7753192615256437 		Uiso   ? 		N 		-0.63319
N 1.0  		0.09389127688510313 		0.7054176072234764  0.5744877882642362 		Uiso   ? 		N 		-0.63319
N 1.0  		0.9320695800977511 		0.6453037589557366  0.7995259983167874 		Uiso   ? 		N 		-0.63319
N 1.0  		0.4220741427032485 		0.14378251055059377  0.6124867355526595 		Uiso   ? 		N 		-0.63237
N 1.0  		0.44693953453774365 		0.0201197369712435  0.8145848403903477 		Uiso   ? 		N 		-0.63237
N 1.0  		0.5817356158902932 		0.47968397291196396  0.6288122092025006 		Uiso   ? 		N 		-0.63237
N 1.0  		0.5978120531996058 		0.34694278143095497  0.8276733666785824 		Uiso   ? 		N 		-0.63237
N 1.0  		0.7525363884519221 		0.8153400726273433  0.6062943145130646 		Uiso   ? 		N 		-0.63237
N 1.0  		0.7853842752755312 		0.6855432328982236  0.8207772614299426 		Uiso   ? 		N 		-0.63237
N 1.0  		0.9198182578584153 		0.14991657670036315  0.6348638934002866 		Uiso   ? 		N 		-0.63237
N 1.0  		0.9377742373732615 		0.01668465992737266  0.8404804192831992 		Uiso   ? 		N 		-0.63237
N 1.0  		0.08344616177754594 		0.47968397291196396  0.6082646302983903 		Uiso   ? 		N 		-0.63237
N 1.0  		0.1140969317101069 		0.3535675728727059  0.8150070509157747 		Uiso   ? 		N 		-0.63237
N 1.0  		0.2533312349589923 		0.8143586220433802  0.6268418934171749 		Uiso   ? 		N 		-0.63237
N 1.0  		0.2588072353744128 		0.6803906173324173  0.8278141035203913 		Uiso   ? 		N 		-0.63237
N 1.0  		0.5759889829945694 		0.3415448032191579  0.6728628406887098 		Uiso   ? 		N 		-0.63074
N 1.0  		0.6037897777603681 		0.10943174011188538  0.8656723139670056 		Uiso   ? 		N 		-0.63074
N 1.0  		0.7671013228323438 		0.6838256943762882  0.6531596828354533 		Uiso   ? 		N 		-0.63074
N 1.0  		0.7838591051138956 		0.44705074099519093  0.8615909455545454 		Uiso   ? 		N 		-0.63074
N 1.0  		0.9062071674405394 		0.005397978211797036  0.6708925249033842 		Uiso   ? 		N 		-0.63074
N 1.0  		0.9501735123340198 		0.7839336539405242  0.87467947184278 		Uiso   ? 		N 		-0.63074
N 1.0  		0.09814025239373698 		0.3437530670330749  0.6516115775755545 		Uiso   ? 		N 		-0.63074
N 1.0  		0.1010533041284371 		0.10648738835999608  0.8552577876731415 		Uiso   ? 		N 		-0.63074
N 1.0  		0.2348481446772736 		0.6668956718029247  0.6696258933271034 		Uiso   ? 		N 		-0.63074
N 1.0  		0.2717883379992016 		0.44116203749141236  0.8641242087071069 		Uiso   ? 		N 		-0.63074
N 1.0  		0.4188533201528947 		0.006870154087741683  0.6496412617902289 		Uiso   ? 		N 		-0.63074
N 1.0  		0.4411650968994288 		0.7714201589949947  0.8493468403171646 		Uiso   ? 		N 		-0.63074
N 1.0  		0.4100849962983352 		0.25664932770635  0.6852476827678996 		Uiso   ? 		N 		-0.63028
N 1.0  		0.4575446137235546 		0.034105407792717646  0.8949455770632725 		Uiso   ? 		N 		-0.63028
N 1.0  		0.5938171211725927 		0.598194130925508  0.69481778801091 		Uiso   ? 		N 		-0.63028
N 1.0  		0.6328757397409274 		0.3771223868878202  0.9055008401989456 		Uiso   ? 		N 		-0.63028
N 1.0  		0.7513601691132304 		0.9294337030130533  0.6859513669769445 		Uiso   ? 		N 		-0.63028
N 1.0  		0.8036348453342761 		0.7105702227892826  0.9022638928373391 		Uiso   ? 		N 		-0.63028
N 1.0  		0.934938043098233 		0.26302875650211016  0.711143261660751 		Uiso   ? 		N 		-0.63028
N 1.0  		0.9751929110559037 		0.05029934242810875  0.9342111559279765 		Uiso   ? 		N 		-0.63028
N 1.0  		0.07224123737108631 		0.591569339483757  0.6911586301238766 		Uiso   ? 		N 		-0.63028
N 1.0  		0.11609731948955161 		0.3707429580920601  0.9056415770407545 		Uiso   ? 		N 		-0.63028
N 1.0  		0.2546150872748064 		0.9286976150750811  0.7014324195759317 		Uiso   ? 		N 		-0.63028
N 1.0  		0.2869263191046939 		0.6941309255079008  0.9000121033683955 		Uiso   ? 		N 		-0.63028
N 1.0  		0.3602870453805453 		0.004907252919815488  0.5404294725464642 		Uiso   ? 		N 		-0.26959
N 1.0  		0.19815801781509346 		0.05250760624202572  0.7307056826721986 		Uiso   ? 		N 		-0.26959
N 1.0  		0.5290263337637838 		0.33516537442339783  0.5452145251679694 		Uiso   ? 		N 		-0.26959
N 1.0  		0.36107673760887454 		0.3783492001177741  0.7377425247626473 		Uiso   ? 		N 		-0.26959
N 1.0  		0.6994373164721452 		0.6776916282265188  0.5512662093657553 		Uiso   ? 		N 		-0.26959
N 1.0  		0.5403049018959317 		0.7176857395230151  0.7300019984631537 		Uiso   ? 		N 		-0.26959
N 1.0  		0.8619170800365892 		-0.0007360879379723231  0.5407109462300822 		Uiso   ? 		N 		-0.26959
N 1.0  		0.7059285168920688 		0.054470507409951914  0.745342314220332 		Uiso   ? 		N 		-0.26959
N 1.0  		0.024526521208311586 		0.33761900088330554  0.5474663146369131 		Uiso   ? 		N 		-0.26959
N 1.0  		0.8763941195224872 		0.38988124447934047  0.7419646300169166 		Uiso   ? 		N 		-0.26959
N 1.0  		0.1904881632515299 		0.6708214741387771  0.530859367303454 		Uiso   ? 		N 		-0.26959
N 1.0  		0.03807674254521998 		0.7191579153989597  0.750831051050882 		Uiso   ? 		N 		-0.26959
N 1.0  		0.1843938130978529 		0.02625380312101286  0.5775839987840337 		Uiso   ? 		N 		-0.26955
N 1.0  		0.040112548134034365 		0.9684463637255865  0.7926298930681476 		Uiso   ? 		N 		-0.26955
N 1.0  		0.37606493180797457 		0.37687702424182945  0.5754729461568991 		Uiso   ? 		N 		-0.26955
N 1.0  		0.1947301753222856 		0.2900186475610953  0.7719415773222283 		Uiso   ? 		N 		-0.26955
N 1.0  		0.5167837444972286 		0.694867013445873  0.5812431566710671 		Uiso   ? 		N 		-0.26955
N 1.0  		0.3692442099957724 		0.6335263519481794  0.7775710509945873 		Uiso   ? 		N 		-0.26955
N 1.0  		0.7145373636293642 		0.040239473942487  0.5908132619140775 		Uiso   ? 		N 		-0.26955
N 1.0  		0.5351072440026942 		0.9652566493277065  0.7763044194183065 		Uiso   ? 		N 		-0.26955
N 1.0  		0.8562528884894015 		0.3572480125625675  0.5802579987784042 		Uiso   ? 		N 		-0.26955
N 1.0  		0.7108669697257436 		0.3074393954264403  0.7851708404522719 		Uiso   ? 		N 		-0.26955
N 1.0  		0.04289363552601594 		0.7054176072234764  0.5899688408632235 		Uiso   ? 		N 		-0.26955
N 1.0  		0.8836370949063548 		0.6423594072038473  0.7816524194070475 		Uiso   ? 		N 		-0.26955
N 1.0  		0.3659327490940132 		0.1351948179409167  0.6251530513154673 		Uiso   ? 		N 		-0.26714
N 1.0  		0.3876348600661496 		0.010305231131612524  0.8197921035372798 		Uiso   ? 		N 		-0.26714
N 1.0  		0.525690509171395 		0.4661890273824713  0.6147385250216032 		Uiso   ? 		N 		-0.26714
N 1.0  		0.5437122273771057 		0.33393856119344395  0.812614524605022 		Uiso   ? 		N 		-0.26714
N 1.0  		0.701168386670233 		0.8082245558936109  0.6238864197391865 		Uiso   ? 		N 		-0.26714
N 1.0  		0.7277971174282692 		0.6791638041024635  0.82387347194974 		Uiso   ? 		N 		-0.26714
N 1.0  		0.8662179486942865 		0.1396113455687506  0.6203679986939622 		Uiso   ? 		N 		-0.26714
N 1.0  		0.8829975952114519 		0.00785160467170478  0.8252808403678298 		Uiso   ? 		N 		-0.26714
N 1.0  		0.03594465006606848 		0.47477671999214843  0.6290936828861186 		Uiso   ? 		N 		-0.26714
N 1.0  		0.06462606737964713 		0.3493964078908627  0.8323176824582785 		Uiso   ? 		N 		-0.26714
N 1.0  		0.19519409586223102 		0.8013544018058691  0.6164273671233108 		Uiso   ? 		N 		-0.26714
N 1.0  		0.2050185077605387 		0.6688585729708509  0.81289599828864 		Uiso   ? 		N 		-0.26714
N 1.0  		0.5234904705144088 		0.32706840710570223  0.6545670512535431 		Uiso   ? 		N 		-0.27031
N 1.0  		0.5504852927051289 		0.10354303660810679  0.8542726297804787 		Uiso   ? 		N 		-0.27031
N 1.0  		0.7095623084302503 		0.6749926391206204  0.6620261038694187 		Uiso   ? 		N 		-0.27031
N 1.0  		0.726639986543276 		0.4414074001374031  0.8565244192494224 		Uiso   ? 		N 		-0.27031
N 1.0  		0.8513647865878656 		-0.0044165276278339384  0.6575225249315315 		Uiso   ? 		N 		-0.27031
N 1.0  		0.8929039291722726 		0.774364510746884  0.8684870508031852 		Uiso   ? 		N 		-0.27031
N 1.0  		0.04545796375575001 		0.3408087152811856  0.6675148406999688 		Uiso   ? 		N 		-0.27031
N 1.0  		0.05674146614786196 		0.10795956423594073  0.8760868402608698 		Uiso   ? 		N 		-0.27031
N 1.0  		0.182513978924274 		0.6548729021493769  0.6514708407337455 		Uiso   ? 		N 		-0.27031
N 1.0  		0.21557472922221338 		0.4362547845715969  0.8555392613567594 		Uiso   ? 		N 		-0.27031
N 1.0  		0.3669552535133615 		0.0029443517518892926  0.6620261038694187 		Uiso   ? 		N 		-0.27031
N 1.0  		0.3863579065381465 		0.7684758072431054  0.8593391560856017 		Uiso   ? 		N 		-0.27031
N 1.0  		0.35448246516979187 		0.24658945922072822  0.6983362090561342 		Uiso   ? 		N 		-0.26942
N 1.0  		0.4010439784605246 		0.026499165767003632  0.9038119980972379 		Uiso   ? 		N 		-0.26942
N 1.0  		0.5346591981824638 		0.5873981745019139  0.6894697880221689 		Uiso   ? 		N 		-0.26942
N 1.0  		0.5726136989208708 		0.36411816665030916  0.9019824191537212 		Uiso   ? 		N 		-0.26942
N 1.0  		0.6952909906717479 		0.9171655707135147  0.699462103790606 		Uiso   ? 		N 		-0.26942
N 1.0  		0.7453685500017455 		0.7019825301796055  0.902826840204575 		Uiso   ? 		N 		-0.26942
N 1.0  		0.8799095649417733 		0.2583668662282854  0.6996028406324151 		Uiso   ? 		N 		-0.26942
N 1.0  		0.9150688240944643 		0.034596133084699186  0.9268928401539098 		Uiso   ? 		N 		-0.26942
N 1.0  		0.022711110826650727 		0.5817548336441261  0.7125506300788408 		Uiso   ? 		N 		-0.26942
N 1.0  		0.0665190494999474 		0.3633820787123369  0.9229522085832585 		Uiso   ? 		N 		-0.26942
N 1.0  		0.2022022298771654 		0.9250171753852194  0.688203156445888 		Uiso   ? 		N 		-0.26942
N 1.0  		0.22792394521887807 		0.6840710570222789  0.897478840215834 		Uiso   ? 		N 		-0.26942
N 1.0  		0.36319519518031496 		-0.043674550986357835  0.524948419947477 		Uiso   ? 		N 		-0.61017
N 1.0  		0.198498690301213 		0.0004907252919815488  0.7412609458078717 		Uiso   ? 		N 		-0.61017
N 1.0  		0.5518057963953036 		0.2961527137108647  0.536488840975813 		Uiso   ? 		N 		-0.61017
N 1.0  		0.3810850303772625 		0.33761900088330554  0.7467496826384218 		Uiso   ? 		N 		-0.61017
N 1.0  		0.6996312374767996 		0.6266561978604377  0.5384591567611386 		Uiso   ? 		N 		-0.61017
N 1.0  		0.5438593198355379 		0.6708214741387771  0.7461867352711857 		Uiso   ? 		N 		-0.61017
N 1.0  		0.8843132292917301 		-0.03754048483658848  0.5290297883599373 		Uiso   ? 		N 		-0.61017
N 1.0  		0.7227494570755139 		0.013740308175483365  0.7560383141978141 		Uiso   ? 		N 		-0.61017
N 1.0  		0.02786844897558824 		0.29075473549906766  0.5319852620379257 		Uiso   ? 		N 		-0.61017
N 1.0  		0.872182687976238 		0.33810972617528706  0.756741998406859 		Uiso   ? 		N 		-0.61017
N 1.0  		0.20988305722551365 		0.6288644616743548  0.5243854725802412 		Uiso   ? 		N 		-0.61017
N 1.0  		0.06168209414347359 		0.6813720679163805  0.7574456826159038 		Uiso   ? 		N 		-0.61017
N 1.0  		0.3869009566748013 		0.32927667091961926  0.5836356829818197 		Uiso   ? 		N 		-0.60855
N 1.0  		0.2135533374701451 		0.249043085680636  0.7633566299718808 		Uiso   ? 		N 		-0.60855
N 1.0  		0.5276044952643189 		0.6502110118755521  0.5947538934847286 		Uiso   ? 		N 		-0.60855
N 1.0  		0.370713072034404 		0.5824909215820984  0.7658898931244423 		Uiso   ? 		N 		-0.60855
N 1.0  		0.7243678787025596 		-0.008096967317695556  0.5960205250610094 		Uiso   ? 		N 		-0.60855
N 1.0  		0.5522633541173496 		0.9247718127392287  0.762512208921027 		Uiso   ? 		N 		-0.60855
N 1.0  		0.8634196393586097 		0.31038374717832956  0.593346525066639 		Uiso   ? 		N 		-0.60855
N 1.0  		0.7154597668044131 		0.2618019432721563  0.7689861036442398 		Uiso   ? 		N 		-0.60855
N 1.0  		0.055806418670969304 		0.6602708803611739  0.5964427355864365 		Uiso   ? 		N 		-0.60855
N 1.0  		0.9038666754699203 		0.6033467464913143  0.773208208898509 		Uiso   ? 		N 		-0.60855
N 1.0  		0.19487577457271515 		0.9821866719010699  0.5915169461231222 		Uiso   ? 		N 		-0.60855
N 1.0  		0.035646959447175386 		0.9144665816076161  0.7805265246725758 		Uiso   ? 		N 		-0.60855
N 1.0  		0.37045100985897045 		0.08685837668073412  0.6112201039763787 		Uiso   ? 		N 		-0.60930
N 1.0  		0.40502391271470123 		0.9694278143095496  0.8335843140345593 		Uiso   ? 		N 		-0.60930
N 1.0  		0.5481676712171366 		0.427421729315929  0.6089683145074352 		Uiso   ? 		N 		-0.60930
N 1.0  		0.5489424949727638 		0.2883011090391599  0.8283770508876273 		Uiso   ? 		N 		-0.60930
N 1.0  		0.7033404579167175 		0.7581705761114929  0.609249788191053 		Uiso   ? 		N 		-0.60930
N 1.0  		0.7364753712263685 		0.6310727254882718  0.8316139982492337 		Uiso   ? 		N 		-0.60930
N 1.0  		0.8889733396032219 		0.10182549808617136  0.6124867355526595 		Uiso   ? 		N 		-0.60930
N 1.0  		0.8898408308881685 		0.9586318578859555  0.8316139982492337 		Uiso   ? 		N 		-0.60930
N 1.0  		0.030532813799554276 		0.4257041907939936  0.6110793671345697 		Uiso   ? 		N 		-0.60930
N 1.0  		0.08186319028490337 		0.3069486701344587  0.8383693666560644 		Uiso   ? 		N 		-0.60930
N 1.0  		0.21224280031774206 		0.7576798508195113  0.6137533671289402 		Uiso   ? 		N 		-0.60930
N 1.0  		0.2116375985262069 		0.6217489449406223  0.8271104193113464 		Uiso   ? 		N 		-0.60930
N 1.0  		0.530004476766892 		0.28314849347335364  0.6727221038469009 		Uiso   ? 		N 		-0.61388
N 1.0  		0.5577571280875222 		0.05348905682598882  0.8546948403059057 		Uiso   ? 		N 		-0.61388
N 1.0  		0.7235704117822835 		0.6303366375502993  0.6703295775361483 		Uiso   ? 		N 		-0.61388
N 1.0  		0.7338789525802372 		0.39086269506330357  0.8531467350460069 		Uiso   ? 		N 		-0.61388
N 1.0  		0.8585431921957924 		0.9466090882324076  0.666529682807306 		Uiso   ? 		N 		-0.61388
N 1.0  		0.9057269019037772 		0.7294631465305722  0.8603243139782647 		Uiso   ? 		N 		-0.61388
N 1.0  		0.06289877921048785 		0.29664343900284623  0.6752553669994624 		Uiso   ? 		N 		-0.61388
N 1.0  		0.046775204703019595 		0.05275296888801649  0.8622946297635903 		Uiso   ? 		N 		-0.61388
N 1.0  		0.18904325927649362 		0.6080086367651389  0.6677963143835868 		Uiso   ? 		N 		-0.61388
N 1.0  		0.22338542708529865 		0.38472862891353427  0.8553985245149506 		Uiso   ? 		N 		-0.61388
N 1.0  		0.37940656760720587 		0.9581411325939739  0.6696258933271034 		Uiso   ? 		N 		-0.61388
N 1.0  		0.38828461826686933 		0.7179311021690059  0.8483616824245017 		Uiso   ? 		N 		-0.61388
N 1.0  		0.3615265362801192 		0.19947983119049956  0.6866550511859894 		Uiso   ? 		N 		-0.61030
N 1.0  		0.4068817043436099 		0.9765433310432821  0.8977603138994519 		Uiso   ? 		N 		-0.61030
N 1.0  		0.5494033800877822 		0.5442143488075376  0.6811663143554393 		Uiso   ? 		N 		-0.61030
N 1.0  		0.5852482532026302 		0.3179899892040436  0.8948048402214634 		Uiso   ? 		N 		-0.61030
N 1.0  		0.704795133436581 		0.8703013053292767  0.6900327353894047 		Uiso   ? 		N 		-0.61030
N 1.0  		0.7555430326289992 		0.6556089900873492  0.8935382086451827 		Uiso   ? 		N 		-0.61030
N 1.0  		0.8943755179838979 		0.21420158994994604  0.6921437880165394 		Uiso   ? 		N 		-0.61030
N 1.0  		0.935956327536585 		0.9951908921385809  0.9180264191199443 		Uiso   ? 		N 		-0.61030
N 1.0  		0.02583175079874994 		0.5331730297379528  0.6980547353725164 		Uiso   ? 		N 		-0.61030
N 1.0  		0.0615409912009402 		0.3160270880361174  0.9026861033627661 		Uiso   ? 		N 		-0.61030
N 1.0  		0.21746120254059156 		0.8815879870448523  0.6807441038300124 		Uiso   ? 		N 		-0.61030
N 1.0  		0.24378984019981997 		0.6465305721856904  0.8794645244642851 		Uiso   ? 		N 		-0.61030
N 1.0  		0.4131610475362163 		0.06305820001962902  0.541555367280936 		Uiso   ? 		N 		-0.43350
N 1.0  		0.2535731044158709 		0.10894101481990383  0.728876103728682 		Uiso   ? 		N 		-0.43350
N 1.0  		0.5705814157179733 		0.3940524094611837  0.5564734725126874 		Uiso   ? 		N 		-0.43350
N 1.0  		0.4007258844889867 		0.43257434488173524  0.7214170511128063 		Uiso   ? 		N 		-0.43350
N 1.0  		0.7514525603156501 		0.734125036804397  0.5480292620041489 		Uiso   ? 		N 		-0.43350
N 1.0  		0.5917396162904646 		0.7733830601629209  0.7242317879489857 		Uiso   ? 		N 		-0.43350
N 1.0  		0.8995399332297025 		0.05496123270193346  0.5571771567217323 		Uiso   ? 		N 		-0.43350
N 1.0  		0.7505964151174889 		0.11065855334183924  0.7329574721411422 		Uiso   ? 		N 		-0.43350
N 1.0  		0.07333913836713726 		0.396996761213073  0.5447923146425425 		Uiso   ? 		N 		-0.43350
N 1.0  		0.9263502003335613 		0.4472961036411817  0.7477348405310845 		Uiso   ? 		N 		-0.43350
N 1.0  		0.22745595068195898 		0.7230837177348122  0.5501403146312835 		Uiso   ? 		N 		-0.43350
N 1.0  		0.07319785711554755 		0.7724016095789578  0.7325352616157152 		Uiso   ? 		N 		-0.43350
N 1.0  		0.23169492732778754 		0.08685837668073412  0.5774432619422247 		Uiso   ? 		N 		-0.43622
N 1.0  		0.08970420902948342 		0.024290901953086665  0.7834819983505642 		Uiso   ? 		N 		-0.43622
N 1.0  		0.4231841040650524 		0.4315928942977721  0.5621029461850464 		Uiso   ? 		N 		-0.43622
N 1.0  		0.23492698230593764 		0.3444891549710472  0.7877041036048336 		Uiso   ? 		N 		-0.43622
N 1.0  		0.5647464009667361 		0.7542447737756404  0.5784284198348876 		Uiso   ? 		N 		-0.43622
N 1.0  		0.4230163162859301 		0.6892236725880853  0.7798228404635309 		Uiso   ? 		N 		-0.43622
N 1.0  		0.7561952089507792 		0.08955736578663265  0.5712508409026298 		Uiso   ? 		N 		-0.43622
N 1.0  		0.5774654414160915 		0.019383649033271177  0.7903781035992039 		Uiso   ? 		N 		-0.43622
N 1.0  		0.9047303357170167 		0.41638041024634415  0.5815246303546849 		Uiso   ? 		N 		-0.43622
N 1.0  		0.7614035799857898 		0.36559034252625383  0.7868596825539796 		Uiso   ? 		N 		-0.43622
N 1.0  		0.08488665077864144 		0.7549808617136128  0.5712508409026298 		Uiso   ? 		N 		-0.43622
N 1.0  		0.9158620387087104 		0.6872607714201591  0.807547998299899 		Uiso   ? 		N 		-0.43622
N 1.0  		0.4169031373215663 		0.19506330356266566  0.6226197881629058 		Uiso   ? 		N 		-0.43602
N 1.0  		0.42957093425075865 		0.06060457355972127  0.8005111562094501 		Uiso   ? 		N 		-0.43602
N 1.0  		0.5657581599192778 		0.5250760624202572  0.6261382092081301 		Uiso   ? 		N 		-0.43602
N 1.0  		0.5927942757762774 		0.392580233585239  0.8117701035541682 		Uiso   ? 		N 		-0.43602
N 1.0  		0.7494245461026707 		0.865639415055452  0.6183976829086365 		Uiso   ? 		N 		-0.43602
N 1.0  		0.7752755313391418 		0.7328982235744431  0.8106442088196963 		Uiso   ? 		N 		-0.43602
N 1.0  		0.9023445730582452 		0.193591127686721  0.6366934723438032 		Uiso   ? 		N 		-0.43602
N 1.0  		0.9327499834730445 		0.06698400235548141  0.8286585245712452 		Uiso   ? 		N 		-0.43602
N 1.0  		0.08689744304792574 		0.5312101285700266  0.6237456828973775 		Uiso   ? 		N 		-0.43602
N 1.0  		0.09606678918354902 		0.3952792226911375  0.807266524616281 		Uiso   ? 		N 		-0.43602
N 1.0  		0.23308638029569043 		0.8563156345078027  0.632049156564107 		Uiso   ? 		N 		-0.43602
N 1.0  		0.2517960336095177 		0.7279909706546276  0.8143033667067298 		Uiso   ? 		N 		-0.43602
N 1.0  		0.5684213235032864 		0.387182255373442  0.6572410512479135 		Uiso   ? 		N 		-0.43560
N 1.0  		0.6008094127928455 		0.16169398370792032  0.8603243139782647 		Uiso   ? 		N 		-0.43560
N 1.0  		0.7513604287562421 		0.7279909706546276  0.643308103908825 		Uiso   ? 		N 		-0.43560
N 1.0  		0.7745281066990712 		0.498086171361272  0.8656723139670056 		Uiso   ? 		N 		-0.43560
N 1.0  		0.898902462712714 		0.05496123270193346  0.6609002091349468 		Uiso   ? 		N 		-0.43560
N 1.0  		0.9374491476388118 		0.8303071940327805  0.8817163139332288 		Uiso   ? 		N 		-0.43560
N 1.0  		0.08044527979838952 		0.38571007949749736  0.6427451565415891 		Uiso   ? 		N 		-0.43560
N 1.0  		0.10699104992186631 		0.16341152222985575  0.8660945244924326 		Uiso   ? 		N 		-0.43560
N 1.0  		0.22728928280883862 		0.7142506624791443  0.6556929459880149 		Uiso   ? 		N 		-0.43560
N 1.0  		0.26595579037794653 		0.4936696437334381  0.8637019981816799 		Uiso   ? 		N 		-0.43560
N 1.0  		0.4079186872497715 		0.052998331534007265  0.6420414723325443 		Uiso   ? 		N 		-0.43560
N 1.0  		0.43858564055398097 		0.8249092158209835  0.8537096824132427 		Uiso   ? 		N 		-0.43560
N 1.0  		0.40519869625673544 		0.30424968102856026  0.699462103790606 		Uiso   ? 		N 		-0.43604
N 1.0  		0.45209537947867845 		0.08440475022082639  0.9029675770463841 		Uiso   ? 		N 		-0.43604
N 1.0  		0.5766281417125049 		0.6381882422220042  0.7080470511409536 		Uiso   ? 		N 		-0.43604
N 1.0  		0.6200527670094227 		0.42202375110413193  0.9102858928204508 		Uiso   ? 		N 		-0.43604
N 1.0  		0.7431967060732391 		0.9772794189812544  0.6967881037962356 		Uiso   ? 		N 		-0.43604
N 1.0  		0.795226022776523 		0.757925213465502  0.9114117875549226 		Uiso   ? 		N 		-0.43604
N 1.0  		0.9199244299525687 		0.3069486701344587  0.7212763142709973 		Uiso   ? 		N 		-0.43604
N 1.0  		0.953541637976896 		0.09029345372460497  0.942796103278324 		Uiso   ? 		N 		-0.43604
N 1.0  		0.06757622512466399 		0.6408872313279027  0.7048101037793472 		Uiso   ? 		N 		-0.43604
N 1.0  		0.11781581003586303 		0.4217783884581412  0.920137471747079 		Uiso   ? 		N 		-0.43604
N 1.0  		0.2432073305818556 		0.9772794189812544  0.7067804195646729 		Uiso   ? 		N 		-0.43604
N 1.0  		0.27410334637318917 		0.7390322897242124  0.9119747349221585 		Uiso   ? 		N 		-0.43604
N 1.0  		0.46953020541751755 		0.06870154087741684  0.5338148409814425 		Uiso   ? 		N 		-0.39261
N 1.0  		0.3064438115036031 		0.113112179801747  0.7415424194914897 		Uiso   ? 		N 		-0.39261
N 1.0  		0.6303615351253542 		0.407792717636667  0.5653398935466529 		Uiso   ? 		N 		-0.39261
N 1.0  		0.45936901672100783 		0.4436156639513201  0.7121284195534138 		Uiso   ? 		N 		-0.39261
N 1.0  		0.8038894894358755 		0.7365786632643047  0.5394443146538015 		Uiso   ? 		N 		-0.39261
N 1.0  		0.6489522583841953 		0.7836882912945333  0.7357722089773217 		Uiso   ? 		N 		-0.39261
N 1.0  		-0.04056009030938684 		0.07017371675336147  0.56435473565399 		Uiso   ? 		N 		-0.39261
N 1.0  		0.8053971290018827 		0.11826479536755324  0.72226147216366 		Uiso   ? 		N 		-0.39261
N 1.0  		0.12865464300963875 		0.40435764059279616  0.536207367292195 		Uiso   ? 		N 		-0.39261
N 1.0  		-0.018519059702145207 		0.4499950927470802  0.7571642089322859 		Uiso   ? 		N 		-0.39261
N 1.0  		0.2856588284695845 		0.7370693885562862  0.558584525139822 		Uiso   ? 		N 		-0.39261
N 1.0  		0.12364136189420627 		0.7768181372067917  0.7143802090223574 		Uiso   ? 		N 		-0.39261
N 1.0  		0.2872493150111623 		0.09937187162626364  0.5895466303377966 		Uiso   ? 		N 		-0.39294
N 1.0  		0.13852000759725877 		0.025026989891058986  0.7674379983843411 		Uiso   ? 		N 		-0.39294
N 1.0  		0.47793435335831824 		0.43527333398763374  0.5542216830437439 		Uiso   ? 		N 		-0.39294
N 1.0  		0.2918789907821704 		0.3572480125625675  0.7958668404297541 		Uiso   ? 		N 		-0.39294
N 1.0  		0.6208396511308029 		0.7652860928452253  0.5889836829705606 		Uiso   ? 		N 		-0.39294
N 1.0  		0.47680272275384483 		0.6943762881538915  0.7667343141752962 		Uiso   ? 		N 		-0.39294
N 1.0  		0.8117713472107788 		0.09446461870644814  0.5621029461850464 		Uiso   ? 		N 		-0.39294
N 1.0  		0.6367965087562291 		0.03435077043870842  0.7933335772771924 		Uiso   ? 		N 		-0.39294
N 1.0  		-0.04227677899576221 		0.4284031798998921  0.598975998738998 		Uiso   ? 		N 		-0.39294
N 1.0  		0.8186555679018414 		0.3717244086760232  0.7822153667742834 		Uiso   ? 		N 		-0.39294
N 1.0  		0.13970263876277167 		0.7596427519874375  0.5618214725014284 		Uiso   ? 		N 		-0.39294
N 1.0  		0.9726584980806301 		0.699283541073707  0.8173995772265272 		Uiso   ? 		N 		-0.39294
N 1.0  		0.47445742582339606 		0.2009520070664442  0.6161458934396928 		Uiso   ? 		N 		-0.39511
N 1.0  		0.48708587693026767 		0.07066444204534301  0.7933335772771924 		Uiso   ? 		N 		-0.39511
N 1.0  		0.618296018221759 		0.5353812935518697  0.6428858933833981 		Uiso   ? 		N 		-0.39511
N 1.0  		0.6489926104535292 		0.4004318382569438  0.819088419328235 		Uiso   ? 		N 		-0.39511
N 1.0  		0.8041266519507679 		0.8717734812052214  0.6055906303040197 		Uiso   ? 		N 		-0.39511
N 1.0  		0.8340478198069323 		0.739523015016194  0.8099405246106516 		Uiso   ? 		N 		-0.39511
N 1.0  		0.9559448822223742 		0.2038963588183335  0.6514708407337455 		Uiso   ? 		N 		-0.39511
N 1.0  		0.9865780569092393 		0.07434488173520463  0.8417470508594799 		Uiso   ? 		N 		-0.39511
N 1.0  		0.13937603913643112 		0.5358720188438513  0.6093905250328621 		Uiso   ? 		N 		-0.39511
N 1.0  		0.15153784293036357 		0.40337619000883307  0.7958668404297541 		Uiso   ? 		N 		-0.39511
N 1.0  		0.2889430685648434 		0.8685837668073413  0.6442932618014879 		Uiso   ? 		N 		-0.39511
N 1.0  		0.30600974156805083 		0.739523015016194  0.8286585245712452 		Uiso   ? 		N 		-0.39511
N 1.0  		0.1339622550259582 		0.39159878300127593  0.6303603144623994 		Uiso   ? 		N 		-0.39256
N 1.0  		0.15247922090012206 		0.16046717047796646  0.8476579982154568 		Uiso   ? 		N 		-0.39256
N 1.0  		0.27771983463372035 		0.7279909706546276  0.6752553669994624 		Uiso   ? 		N 		-0.39256
N 1.0  		0.3213194384656166 		0.49857689665325355  0.8703166297467019 		Uiso   ? 		N 		-0.39256
N 1.0  		0.46576000223764313 		0.06158602414368437  0.6373971565528481 		Uiso   ? 		N 		-0.39256
N 1.0  		0.49414418356828477 		0.8263813916969281  0.8508949455770634 		Uiso   ? 		N 		-0.39256
N 1.0  		0.6239099724957967 		0.3987142997350084  0.6694851564852944 		Uiso   ? 		N 		-0.39256
N 1.0  		0.6554698516726626 		0.16561978604377273  0.8690499981704211 		Uiso   ? 		N 		-0.39256
N 1.0  		0.8067986131576245 		0.7355972126803416  0.6354268407675224 		Uiso   ? 		N 		-0.39256
N 1.0  		0.8305620946491623 		0.5034841495730691  0.8713017876393646 		Uiso   ? 		N 		-0.39256
N 1.0  		0.9508269222207908 		0.06403965060359211  0.677929366993833 		Uiso   ? 		N 		-0.39256
N 1.0  		-0.0071900269788693905 		0.8364412601825498  0.8926937875943288 		Uiso   ? 		N 		-0.39256
N 1.0  		0.4605142008992369 		0.3116105604082835  0.6896105248639779 		Uiso   ? 		N 		-0.39431
N 1.0  		0.5073780147757478 		0.09127490430856806  0.8938196823288007 		Uiso   ? 		N 		-0.39431
N 1.0  		0.6341102150465818 		0.6477573854156444  0.7148024195477843 		Uiso   ? 		N 		-0.39431
N 1.0  		0.6769631085173754 		0.43257434488173524  0.914648734916529 		Uiso   ? 		N 		-0.39431
N 1.0  		0.7996075309228203 		0.9851310236529591  0.6903142090730228 		Uiso   ? 		N 		-0.39431
N 1.0  		0.852690500864904 		0.7640592796152714  0.9129598928148213 		Uiso   ? 		N 		-0.39431
N 1.0  		-0.0216324765933546 		0.3162724506821082  0.7270465247851653 		Uiso   ? 		N 		-0.39431
N 1.0  		0.010661646951826795 		0.10207086073216214  0.9515217874704804 		Uiso   ? 		N 		-0.39431
N 1.0  		0.11367363956639484 		0.6502110118755521  0.6814477880390573 		Uiso   ? 		N 		-0.39431
N 1.0  		0.17049809867385002 		0.4247227402100305  0.9074711559842713 		Uiso   ? 		N 		-0.39431
N 1.0  		0.2992982595999628 		0.981941309255079  0.7159283142822561 		Uiso   ? 		N 		-0.39431
N 1.0  		0.33380013184401003 		0.7483560702718618  0.9139450507074841 		Uiso   ? 		N 		-0.39431
N 1.0  		0.5931565851800328 		0.2203356560997154  0.5545031567273617 		Uiso   ? 		N 		-0.63119
N 1.0  		0.43065304186104986 		0.271861811757778  0.7323945247739062 		Uiso   ? 		N 		-0.63119
N 1.0  		0.7426162089493005 		0.5498576896653254  0.5280446304672745 		Uiso   ? 		N 		-0.63119
N 1.0  		0.5837444279905852 		0.5873981745019139  0.7475941036892756 		Uiso   ? 		N 		-0.63119
N 1.0  		0.9333729264942979 		-0.10771420158994996  0.5404294725464642 		Uiso   ? 		N 		-0.63119
N 1.0  		0.7723860643660363 		0.9451369123564629  0.7361944195027486 		Uiso   ? 		N 		-0.63119
N 1.0  		0.0723561257541323 		0.21101187555206596  0.5236817883711963 		Uiso   ? 		N 		-0.63119
N 1.0  		0.9170624757540089 		0.25787614093630384  0.762512208921027 		Uiso   ? 		N 		-0.63119
N 1.0  		0.2580117809481628 		0.5606536460889195  0.5384591567611386 		Uiso   ? 		N 		-0.63119
N 1.0  		0.09917519048083898 		0.6050642850132497  0.7350685247682768 		Uiso   ? 		N 		-0.63119
N 1.0  		0.4085351537941365 		-0.11703798213759938  0.5256521041565219 		Uiso   ? 		N 		-0.63119
N 1.0  		0.24237814654718293 		0.9220728236333301  0.7482977878983205 		Uiso   ? 		N 		-0.63119
N 1.0  		0.41967528110667746 		0.24438119540681127  0.5726582093207195 		Uiso   ? 		N 		-0.63002
N 1.0  		0.264453231055926 		0.18254980861713613  0.7781339983618232 		Uiso   ? 		N 		-0.63002
N 1.0  		0.5908200212223647 		0.5820001962901168  0.5863096829761902 		Uiso   ? 		N 		-0.63002
N 1.0  		0.4134438863662953 		0.5034841495730691  0.7639195773391166 		Uiso   ? 		N 		-0.63002
N 1.0  		0.753421166330631 		0.9110315045637453  0.5735026303715735 		Uiso   ? 		N 		-0.63002
N 1.0  		0.597995423730398 		0.8509176562960056  0.7775710509945873 		Uiso   ? 		N 		-0.63002
N 1.0  		0.9206372970462601 		0.24462655805280206  0.5934872619084478 		Uiso   ? 		N 		-0.63002
N 1.0  		0.7627778756600649 		0.18941996270487782  0.7772895773109693 		Uiso   ? 		N 		-0.63002
N 1.0  		0.08506701820954013 		0.5768475807243105  0.5733618935297644 		Uiso   ? 		N 		-0.63002
N 1.0  		0.9449392353914554 		0.5265482382962018  0.7950224193789002 		Uiso   ? 		N 		-0.63002
N 1.0  		0.25564882412195095 		0.9171655707135147  0.5837764198236286 		Uiso   ? 		N 		-0.63002
N 1.0  		0.07480710781774486 		0.8376680734125038  0.7708156825877566 		Uiso   ? 		N 		-0.63002
N 1.0  		0.40921672608435355 		0.004171164981843165  0.6012277882079415 		Uiso   ? 		N 		-0.63151
N 1.0  		0.43695707408010726 		0.8862498773186771  0.8131774719722579 		Uiso   ? 		N 		-0.63151
N 1.0  		0.5972361660425526 		0.35896555108450295  0.6247308407900404 		Uiso   ? 		N 		-0.63151
N 1.0  		0.6072466752446462 		0.2213171066836785  0.8197921035372798 		Uiso   ? 		N 		-0.63151
N 1.0  		0.740176167345439 		0.672048287368731  0.60418326188593 		Uiso   ? 		N 		-0.63151
N 1.0  		0.7749082386665005 		0.55451957993915  0.807547998299899 		Uiso   ? 		N 		-0.63151
N 1.0  		0.9325869839698635 		0.023309451369123567  0.6262789460499391 		Uiso   ? 		N 		-0.63151
N 1.0  		0.943715586886563 		0.8921385808224557  0.8383693666560644 		Uiso   ? 		N 		-0.63151
N 1.0  		0.06596858128945841 		0.33295711060948086  0.6024944197842222 		Uiso   ? 		N 		-0.63151
N 1.0  		0.10424956799521695 		0.22082638139169694  0.8083924193507528 		Uiso   ? 		N 		-0.63151
N 1.0  		0.2626848442134317 		0.6906958484640299  0.6251530513154673 		Uiso   ? 		N 		-0.63151
N 1.0  		0.2695978112440309 		0.5528020414172147  0.8234512614243131 		Uiso   ? 		N 		-0.63151
N 1.0  		0.08060157550670388 		0.208803611738149  0.6496412617902289 		Uiso   ? 		N 		-0.63312
N 1.0  		0.10243607313248115 		0.9868485621748946  0.8645464192325338 		Uiso   ? 		N 		-0.63312
N 1.0  		0.2477154788250185 		0.5417607223476298  0.6624483143948456 		Uiso   ? 		N 		-0.63312
N 1.0  		0.27448253674367273 		0.32117970360192366  0.8607465245036915 		Uiso   ? 		N 		-0.63312
N 1.0  		0.4116989706264066 		0.8739817450191383  0.6542855775699251 		Uiso   ? 		N 		-0.63312
N 1.0  		0.4352610807144221 		0.6499656492295613  0.8397767350741542 		Uiso   ? 		N 		-0.63312
N 1.0  		0.5846940029632128 		0.20978506232211208  0.6710332617451931 		Uiso   ? 		N 		-0.63312
N 1.0  		0.6099612126916947 		0.9883207380508391  0.8631390508144441 		Uiso   ? 		N 		-0.63312
N 1.0  		0.7545397303223385 		0.5486308764353716  0.6511893670501276 		Uiso   ? 		N 		-0.63312
N 1.0  		0.781672506371676 		0.32240651683187754  0.8666574718596686 		Uiso   ? 		N 		-0.63312
N 1.0  		0.915784921606027 		0.8796250858769261  0.6677963143835868 		Uiso   ? 		N 		-0.63312
N 1.0  		0.9539301619401387 		0.6639513200510355  0.8781978928880044 		Uiso   ? 		N 		-0.63312
N 1.0  		0.5838142083533896 		0.46471685150652664  0.7031212616776396 		Uiso   ? 		N 		-0.63081
N 1.0  		0.635525950371159 		0.24855236038865441  0.9001528402102046 		Uiso   ? 		N 		-0.63081
N 1.0  		0.7528141303541263 		0.7925213465502012  0.6828551564571471 		Uiso   ? 		N 		-0.63081
N 1.0  		0.8038666512782822 		0.583963097458043  0.897197366532216 		Uiso   ? 		N 		-0.63081
N 1.0  		0.9252966930787841 		0.1349494552949259  0.7136765248133126 		Uiso   ? 		N 		-0.63081
N 1.0  		0.9724263188346234 		0.9147119442536069  0.9395591559167176 		Uiso   ? 		N 		-0.63081
N 1.0  		0.0809397808628414 		0.4644714888605359  0.6907364195984497 		Uiso   ? 		N 		-0.63081
N 1.0  		0.11758647122183902 		0.24070075571694965  0.9043749454644738 		Uiso   ? 		N 		-0.63081
N 1.0  		0.2445881027330191 		0.7964471488860536  0.7034027353612574 		Uiso   ? 		N 		-0.63081
N 1.0  		0.29500962961707483 		0.5832270095200707  0.8987454717921148 		Uiso   ? 		N 		-0.63081
N 1.0  		0.4167660437259394 		0.13274119148100896  0.6862328406605624 		Uiso   ? 		N 		-0.63081
N 1.0  		0.45446924443960757 		0.9034252625380312  0.8993084191593507 		Uiso   ? 		N 		-0.63081
N 1.0  		0.5790696765243691 		0.16071253312395722  0.5613992619760015 		Uiso   ? 		N 		-0.43535
N 1.0  		0.4195409956179996 		0.21223868878201985  0.7267650511015472 		Uiso   ? 		N 		-0.43535
N 1.0  		0.7379709994355443 		0.49636863283933663  0.5395850514956104 		Uiso   ? 		N 		-0.43535
N 1.0  		0.5768604346175007 		0.5353812935518697  0.7326759984575243 		Uiso   ? 		N 		-0.43535
N 1.0  		0.9194050782364976 		0.8337422710766514  0.5497181041058566 		Uiso   ? 		N 		-0.43535
N 1.0  		0.7631623579513676 		0.8867406026106586  0.7297205247795356 		Uiso   ? 		N 		-0.43535
N 1.0  		0.06789053706727342 		0.1570320934340956  0.5370517883430489 		Uiso   ? 		N 		-0.43535
N 1.0  		0.9103733773075582 		0.20242418294238887  0.7513939984181179 		Uiso   ? 		N 		-0.43535
N 1.0  		0.24396653926077924 		0.5032387869270784  0.5501403146312835 		Uiso   ? 		N 		-0.43535
N 1.0  		0.0857586216875961 		0.5459318873294731  0.728876103728682 		Uiso   ? 		N 		-0.43535
N 1.0  		0.40092673660648553 		0.8273628422808912  0.5381776830775207 		Uiso   ? 		N 		-0.43535
N 1.0  		0.2363024468951365 		0.867847678869369  0.7360536826609397 		Uiso   ? 		N 		-0.43535
N 1.0  		0.39838777831439415 		0.18353125920109925  0.5661843145975066 		Uiso   ? 		N 		-0.43437
N 1.0  		0.24997421140103557 		0.12341741093335952  0.7867189457121706 		Uiso   ? 		N 		-0.43437
N 1.0  		0.589182543466654 		0.5290018647561096  0.5747692619478542 		Uiso   ? 		N 		-0.43437
N 1.0  		0.4079158468177888 		0.4495043674550987  0.7768673667855424 		Uiso   ? 		N 		-0.43437
N 1.0  		0.7298291409881552 		0.8506722936500148  0.5622436830268555 		Uiso   ? 		N 		-0.43437
N 1.0  		0.5904716386943656 		0.7925213465502012  0.7767266299437334 		Uiso   ? 		N 		-0.43437
N 1.0  		0.9204303094288395 		0.19236431445676713  0.581665367196494 		Uiso   ? 		N 		-0.43437
N 1.0  		0.7552300189014481 		0.1322504661890274  0.7854523141358899 		Uiso   ? 		N 		-0.43437
N 1.0  		0.06071484259119472 		0.5162430071645894  0.5632288409195182 		Uiso   ? 		N 		-0.43437
N 1.0  		0.9326420585278767 		0.4666797526744529  0.7981186298986976 		Uiso   ? 		N 		-0.43437
N 1.0  		0.2542807776065864 		0.8634311512415351  0.5740655777388093 		Uiso   ? 		N 		-0.43437
N 1.0  		0.07713472816854239 		0.7883501815683581  0.7855930509776988 		Uiso   ? 		N 		-0.43437
N 1.0  		0.5856838653551069 		0.302286779860634  0.6345824197166686 		Uiso   ? 		N 		-0.43659
N 1.0  		0.6036310472471054 		0.16733732456570816  0.8085331561925618 		Uiso   ? 		N 		-0.43659
N 1.0  		0.7356712328362596 		0.6222396702326038  0.6216346302702429 		Uiso   ? 		N 		-0.43659
N 1.0  		0.7640656236637963 		0.49416036902541954  0.8062813667236182 		Uiso   ? 		N 		-0.43659
N 1.0  		0.9152674363999593 		0.9623122975758172  0.6326121039313429 		Uiso   ? 		N 		-0.43659
N 1.0  		0.942829461783874 		0.8376680734125038  0.829643682463908 		Uiso   ? 		N 		-0.43659
N 1.0  		0.06369595416271863 		0.2863382078712337  0.6231827355301416 		Uiso   ? 		N 		-0.43659
N 1.0  		0.08636190796020611 		0.15997644518598492  0.8064221035654272 		Uiso   ? 		N 		-0.43659
N 1.0  		0.2508126476945121 		0.630827362842281  0.6314862091968712 		Uiso   ? 		N 		-0.43659
N 1.0  		0.26657151031831017 		0.501275885759152  0.8092368404016067 		Uiso   ? 		N 		-0.43659
N 1.0  		0.4035711850387964 		0.9524977917361862  0.6195235776431083 		Uiso   ? 		N 		-0.43659
N 1.0  		0.418889793218199 		0.8258906664049466  0.8040295772546746 		Uiso   ? 		N 		-0.43659
N 1.0  		0.0595177652639022 		0.14623613701050153  0.6458413670613866 		Uiso   ? 		N 		-0.43760
N 1.0  		0.10255545782342324 		0.9331141427029149  0.8729906297410724 		Uiso   ? 		N 		-0.43760
N 1.0  		0.24584143917439402 		0.4899892040435765  0.6500634723156559 		Uiso   ? 		N 		-0.43760
N 1.0  		0.265258830329004 		0.2627833938561194  0.8656723139670056 		Uiso   ? 		N 		-0.43760
N 1.0  		0.3906808990744693 		0.812395720875454  0.648937577581184 		Uiso   ? 		N 		-0.43760
N 1.0  		0.4334439821318141 		0.5974580429875357  0.851739366627917 		Uiso   ? 		N 		-0.43760
N 1.0  		0.5813325321062817 		0.1580135440180587  0.6556929459880149 		Uiso   ? 		N 		-0.43760
N 1.0  		0.6063937281393226 		0.9318873294729612  0.8634205244980621 		Uiso   ? 		N 		-0.43760
N 1.0  		0.7376816518035432 		0.48729021493767793  0.6482338933721392 		Uiso   ? 		N 		-0.43760
N 1.0  		0.7725386103704559 		0.26376484444008247  0.8697536823794659 		Uiso   ? 		N 		-0.43760
N 1.0  		0.916346881887324 		0.8293257434488174  0.6517523144173636 		Uiso   ? 		N 		-0.43760
N 1.0  		0.9457360370416855 		0.6050642850132497  0.8827014718258916 		Uiso   ? 		N 		-0.43760
N 1.0  		0.5732826915593116 		0.40582981646874083  0.7067804195646729 		Uiso   ? 		N 		-0.43472
N 1.0  		0.6208015711985069 		0.18892923741289627  0.9094414717695969 		Uiso   ? 		N 		-0.43472
N 1.0  		0.7493147056385778 		0.7434488173520464  0.7011509458923139 		Uiso   ? 		N 		-0.43472
N 1.0  		0.7940077954925843 		0.5319462165079989  0.9133821033402483 		Uiso   ? 		N 		-0.43472
N 1.0  		0.9093543139401713 		0.07459024438119541  0.7178986300675818 		Uiso   ? 		N 		-0.43472
N 1.0  		0.9528058680755441 		0.8533712827559133  0.9460330506399305 		Uiso   ? 		N 		-0.43472
N 1.0  		0.0855566496640952 		0.417607223476298  0.7072026300900998 		Uiso   ? 		N 		-0.43472
N 1.0  		0.11275284325833758 		0.185984885661007  0.9169005243854725 		Uiso   ? 		N 		-0.43472
N 1.0  		0.22417463235263818 		0.7343703994503877  0.7079063142991446 		Uiso   ? 		N 		-0.43472
N 1.0  		0.28492948603619955 		0.5294925900480911  0.914367261232911 		Uiso   ? 		N 		-0.43472
N 1.0  		0.4136082654184899 		0.07925213465502012  0.6991806301069882 		Uiso   ? 		N 		-0.43472
N 1.0  		0.4485162245464421 		0.849445480420061  0.9133821033402483 		Uiso   ? 		N 		-0.43472
N 1.0  		0.5388808069005746 		0.17298066542349594  0.5431034725408348 		Uiso   ? 		N 		-0.27086
N 1.0  		0.37326212616440163 		0.22082638139169694  0.739290630022546 		Uiso   ? 		N 		-0.27086
N 1.0  		0.6904588559162492 		0.5071645892629307  0.5446515778007336 		Uiso   ? 		N 		-0.27086
N 1.0  		0.5276483697195693 		0.5461772499754638  0.7323945247739062 		Uiso   ? 		N 		-0.27086
N 1.0  		0.8789291821266613 		0.8433114142702915  0.5298742094107912 		Uiso   ? 		N 		-0.27086
N 1.0  		0.7136215995991144 		0.8926293061144371  0.7404165247570179 		Uiso   ? 		N 		-0.27086
N 1.0  		0.02188341999998082 		0.1712631269015605  0.5429627356990259 		Uiso   ? 		N 		-0.27086
N 1.0  		0.8676281491389208 		0.2193542055157523  0.7423868405423436 		Uiso   ? 		N 		-0.27086
N 1.0  		0.204020708008787 		0.5096182157228384  0.5277631567836565 		Uiso   ? 		N 		-0.27086
N 1.0  		0.04975381681952781 		0.5572185690450486  0.7520976826271628 		Uiso   ? 		N 		-0.27086
N 1.0  		0.35073323363750736 		0.8361958975365591  0.5352222093995322 		Uiso   ? 		N 		-0.27086
N 1.0  		0.18873336230782484 		0.8793797232309354  0.7311278931976255 		Uiso   ? 		N 		-0.27086
N 1.0  		0.359443301525104 		0.20168809500441653  0.5770210514167977 		Uiso   ? 		N 		-0.26946
N 1.0  		0.21070751763431206 		0.13200510354303663  0.7653269457572064 		Uiso   ? 		N 		-0.26946
N 1.0  		0.5403866612905338 		0.5380802826577682  0.570124946168158 		Uiso   ? 		N 		-0.26946
N 1.0  		0.35848249412468003 		0.45858278535675734  0.7747563141584077 		Uiso   ? 		N 		-0.26946
N 1.0  		0.6952154804360564 		0.8668662282854058  0.5829319987727748 		Uiso   ? 		N 		-0.26946
N 1.0  		0.5429506975522226 		0.8015997644518599  0.767719472067959 		Uiso   ? 		N 		-0.26946
N 1.0  		0.8714460088029742 		0.2002159191284719  0.5742063145806183 		Uiso   ? 		N 		-0.26946
N 1.0  		0.704177757620304 		0.13936598292275984  0.7786969457290591 		Uiso   ? 		N 		-0.26946
N 1.0  		0.02874087452049895 		0.5321915791539896  0.5849023145581004 		Uiso   ? 		N 		-0.26946
N 1.0  		0.8905977184211329 		0.4782117970360193  0.7830597878251373 		Uiso   ? 		N 		-0.26946
N 1.0  		0.20221420890896297 		0.8680930415153597  0.5712508409026298 		Uiso   ? 		N 		-0.26946
N 1.0  		0.02922167602717246 		0.7979193247619982  0.7933335772771924 		Uiso   ? 		N 		-0.26946
N 1.0  		0.5443973543782732 		0.30768475807243106  0.6131904197617044 		Uiso   ? 		N 		-0.26693
N 1.0  		0.5526445246568255 		0.17543429188340368  0.8062813667236182 		Uiso   ? 		N 		-0.26693
N 1.0  		0.6876202268362724 		0.6345078025321426  0.6219161039538608 		Uiso   ? 		N 		-0.26693
N 1.0  		0.7185316303863314 		0.5059377760329767  0.8137404193394939 		Uiso   ? 		N 		-0.26693
N 1.0  		0.8773678152266211 		0.9770340563352636  0.6140348408125583 		Uiso   ? 		N 		-0.26693
N 1.0  		0.8952756512962987 		0.8462557660221808  0.8199328403790888 		Uiso   ? 		N 		-0.26693
N 1.0  		0.01450796098737156 		0.2959073510648739  0.6219161039538608 		Uiso   ? 		N 		-0.26693
N 1.0  		0.05178991437638743 		0.17837864363529296  0.8248586298424029 		Uiso   ? 		N 		-0.26693
N 1.0  		0.2112853203102904 		0.6418686819118659  0.6099534724000979 		Uiso   ? 		N 		-0.26693
N 1.0  		0.21785664093279075 		0.5083914024928845  0.8081109456671348 		Uiso   ? 		N 		-0.26693
N 1.0  		0.3553317605890641 		0.963539110805771  0.6172717881741647 		Uiso   ? 		N 		-0.26693
N 1.0  		0.3767162968756859 		0.8418392383943469  0.8161329456502465 		Uiso   ? 		N 		-0.26693
N 1.0  		0.025894340405698206 		0.16611051133575427  0.6637149459711265 		Uiso   ? 		N 		-0.26975
N 1.0  		0.0545197259231725 		0.9424379232505644  0.8829829455095096 		Uiso   ? 		N 		-0.26975
N 1.0  		0.19340683120012814 		0.4939150063794288  0.6502042091574648 		Uiso   ? 		N 		-0.26975
N 1.0  		0.21936327425178498 		0.2691628226518795  0.8501912613680185 		Uiso   ? 		N 		-0.26975
N 1.0  		0.35529181414676464 		0.8312886446167436  0.6670926301745419 		Uiso   ? 		N 		-0.26975
N 1.0  		0.3814343545022073 		0.6013838453233881  0.852443050836962 		Uiso   ? 		N 		-0.26975
N 1.0  		0.5298552904804784 		0.16512906075179118  0.6561151565134418 		Uiso   ? 		N 		-0.26975
N 1.0  		0.556362250751546 		0.9367945823927766  0.8546948403059057 		Uiso   ? 		N 		-0.26975
N 1.0  		0.6972978872531148 		0.5029934242810874  0.6613224196603739 		Uiso   ? 		N 		-0.26975
N 1.0  		0.7220997478837159 		0.2721071744037688  0.8655315771251968 		Uiso   ? 		N 		-0.26975
N 1.0  		0.8657283985736867 		0.8381587987044853  0.6486561038975661 		Uiso   ? 		N 		-0.26975
N 1.0  		0.8996279907921368 		0.6114437138090097  0.8677833665941403 		Uiso   ? 		N 		-0.26975
N 1.0  		0.5319086913149885 		0.4178525861222888  0.6904549459148317 		Uiso   ? 		N 		-0.26624
N 1.0  		0.5750791594712966 		0.19947983119049956  0.8979010507412609 		Uiso   ? 		N 		-0.26624
N 1.0  		0.6979272744262233 		0.750318971439788  0.6983362090561342 		Uiso   ? 		N 		-0.26624
N 1.0  		0.7448438740398216 		0.5402885464716852  0.9047971559899007 		Uiso   ? 		N 		-0.26624
N 1.0  		0.869239980630089 		0.08955736578663265  0.7014324195759317 		Uiso   ? 		N 		-0.26624
N 1.0  		0.918126468832581 		0.8685837668073413  0.9254854717358201 		Uiso   ? 		N 		-0.26624
N 1.0  		0.03302343365353275 		0.42006084993620574  0.711002524818942 		Uiso   ? 		N 		-0.26624
N 1.0  		0.06823315739735167 		0.2002159191284719  0.925626208577629 		Uiso   ? 		N 		-0.26624
N 1.0  		0.1938524422154101 		0.7527725978996959  0.6856698932933265 		Uiso   ? 		N 		-0.26624
N 1.0  		0.23631090354101733 		0.531700853862008  0.8990269454757327 		Uiso   ? 		N 		-0.26624
N 1.0  		0.3642647231388298 		0.088085189910688  0.7014324195759317 		Uiso   ? 		N 		-0.26624
N 1.0  		0.3985023424043611 		0.8577878103837473  0.9107081033458777 		Uiso   ? 		N 		-0.26624
N 1.0  		0.5250063884172406 		0.11335754244773777  0.547325577795104 		Uiso   ? 		N 		-0.49960
N 1.0  		0.3636791780959382 		0.16341152222985575  0.7343648405592319 		Uiso   ? 		N 		-0.49960
N 1.0  		0.6856997642664601 		0.4551477083128865  0.5571771567217323 		Uiso   ? 		N 		-0.49960
N 1.0  		0.5171825916163556 		0.48827166552164103  0.723246630056323 		Uiso   ? 		N 		-0.49960
N 1.0  		0.864058051472544 		0.7846697418784965  0.541555367280936 		Uiso   ? 		N 		-0.49960
N 1.0  		0.7066542722894698 		0.8361958975365591  0.7343648405592319 		Uiso   ? 		N 		-0.49960
N 1.0  		0.01586466141595086 		0.11630189419962705  0.5530957883092721 		Uiso   ? 		N 		-0.49960
N 1.0  		0.8613640310371292 		0.1639022475218373  0.7319723142484793 		Uiso   ? 		N 		-0.49960
N 1.0  		0.18722189170396758 		0.45392089508293265  0.5425405251735989 		Uiso   ? 		N 		-0.49960
N 1.0  		0.03651686885318231 		0.49759544606929046  0.745342314220332 		Uiso   ? 		N 		-0.49960
N 1.0  		0.3453125997481453 		0.7854058298164688  0.5519698935748003 		Uiso   ? 		N 		-0.49960
N 1.0  		0.1796652049974693 		0.8217195014231035  0.7238095774235588 		Uiso   ? 		N 		-0.49960
N 1.0  		0.33948768083481434 		0.14010207086073218  0.5726582093207195 		Uiso   ? 		N 		-0.49578
N 1.0  		0.19459431529164972 		0.07385415644322309  0.7763044194183065 		Uiso   ? 		N 		-0.49578
N 1.0  		0.5370163928107548 		0.48459122583177944  0.559428946190676 		Uiso   ? 		N 		-0.49578
N 1.0  		0.3517933956782293 		0.40313082736284234  0.7872818930794065 		Uiso   ? 		N 		-0.49578
N 1.0  		0.67132995213065 		0.8084699185396016  0.5713915777444387 		Uiso   ? 		N 		-0.49578
N 1.0  		0.5340621610687643 		0.7434488173520464  0.7695490510114756 		Uiso   ? 		N 		-0.49578
N 1.0  		0.869440491770621 		0.1464814996564923  0.5657621040720797 		Uiso   ? 		N 		-0.49578
N 1.0  		0.6957558684497847 		0.08342329963686329  0.7910817878082489 		Uiso   ? 		N 		-0.49578
N 1.0  		0.00839314283098247 		0.4710962803022868  0.5788506303603145 		Uiso   ? 		N 		-0.49578
N 1.0  		0.8756608490761512 		0.41858867406026107  0.790096629915586 		Uiso   ? 		N 		-0.49578
N 1.0  		0.19706948273683553 		0.8119049955834725  0.5681546303828323 		Uiso   ? 		N 		-0.49578
N 1.0  		0.02853276699707652 		0.7463931691039356  0.8055776825145733 		Uiso   ? 		N 		-0.49578
N 1.0  		0.52875079934855 		0.25174207478653454  0.626560419733557 		Uiso   ? 		N 		-0.49772
N 1.0  		0.5467067788633962 		0.11851015801354402  0.7999482088422143 		Uiso   ? 		N 		-0.49772
N 1.0  		0.676525775838918 		0.5783197566002553  0.6333157881403878 		Uiso   ? 		N 		-0.49772
N 1.0  		0.7060307609732712 		0.44778682893316324  0.81289599828864 		Uiso   ? 		N 		-0.49772
N 1.0  		0.861000455743349 		0.9166748454215331  0.6191013671176814 		Uiso   ? 		N 		-0.49772
N 1.0  		0.888422206122687 		0.7883501815683581  0.8204957877463247 		Uiso   ? 		N 		-0.49772
N 1.0  		0.012136725824335198 		0.24781627245068213  0.6403526302308366 		Uiso   ? 		N 		-0.49772
N 1.0  		0.03632945665045009 		0.11728334478359015  0.825140103526021 		Uiso   ? 		N 		-0.49772
N 1.0  		0.1967493595873835 		0.5834723721660615  0.6189606302758723 		Uiso   ? 		N 		-0.49772
N 1.0  		0.20994954252037934 		0.4522033565609972  0.8000889456840232 		Uiso   ? 		N 		-0.49772
N 1.0  		0.34795704818045614 		0.9105407792717637  0.6330343144567699 		Uiso   ? 		N 		-0.49772
N 1.0  		0.36007070852922 		0.7804985768966534  0.8127552614468311 		Uiso   ? 		N 		-0.49772
N 1.0  		0.19208045165304363 		0.4423888507213662  0.6369749460274211 		Uiso   ? 		N 		-0.49817
N 1.0  		0.21053167883634313 		0.21027578761409366  0.8548355771477145 		Uiso   ? 		N 		-0.49817
N 1.0  		0.33272937032050415 		0.7704387084110316  0.660759472293138 		Uiso   ? 		N 		-0.49817
N 1.0  		0.37812102709044476 		0.5471587005594268  0.8613094718709274 		Uiso   ? 		N 		-0.49817
N 1.0  		0.5241147607596424 		0.1111492786338208  0.6423229460161622 		Uiso   ? 		N 		-0.49817
N 1.0  		0.5517563870601103 		0.8791343605849447  0.8566651560912312 		Uiso   ? 		N 		-0.49817
N 1.0  		0.680382867666303 		0.4423888507213662  0.6575225249315315 		Uiso   ? 		N 		-0.49817
N 1.0  		0.7152791720555365 		0.21469231524192758  0.8659537876506236 		Uiso   ? 		N 		-0.49817
N 1.0  		0.8629627312654642 		0.784179016586515  0.6390859986545558 		Uiso   ? 		N 		-0.49817
N 1.0  		0.8888599121031451 		0.5537834920011778  0.874960945526398 		Uiso   ? 		N 		-0.49817
N 1.0  		0.006330830714635423 		0.10403376190008834  0.6635742091293174 		Uiso   ? 		N 		-0.49817
N 1.0  		0.04711862064602085 		0.8842869761507509  0.8842495770857904 		Uiso   ? 		N 		-0.49817
N 1.0  		0.5174537433826824 		0.3574933752085583  0.6966473669544266 		Uiso   ? 		N 		-0.49734
N 1.0  		0.5640897929871274 		0.14010207086073218  0.9014194717864854 		Uiso   ? 		N 		-0.49734
N 1.0  		0.6926686661180628 		0.6956031013838454  0.711143261660751 		Uiso   ? 		N 		-0.49734
N 1.0  		0.7352937953167903 		0.48336441260182555  0.9156338928091918 		Uiso   ? 		N 		-0.49734
N 1.0  		0.8525045818701745 		0.02846206693492983  0.706358209039246 		Uiso   ? 		N 		-0.49734
N 1.0  		0.8996342076260138 		0.8082245558936109  0.931255682249988 		Uiso   ? 		N 		-0.49734
N 1.0  		0.03427980551983478 		0.3690254195701247  0.7238095774235588 		Uiso   ? 		N 		-0.49734
N 1.0  		0.06380043805592499 		0.14672686230248308  0.9368851559223471 		Uiso   ? 		N 		-0.49734
N 1.0  		0.16843781573541705 		0.6921680243399746  0.6956622090617637 		Uiso   ? 		N 		-0.49734
N 1.0  		0.2278890143704982 		0.4757581705761115  0.9115525243967316 		Uiso   ? 		N 		-0.49734
N 1.0  		0.3584255853816972 		0.032633231916772996  0.7104395774517062 		Uiso   ? 		N 		-0.49734
N 1.0  		0.3911012371272095 		0.7996368632839337  0.9157746296510008 		Uiso   ? 		N 		-0.49734
N 1.0  		0.4861341267957033 		0.12783393856119346  0.5290297883599373 		Uiso   ? 		N 		-0.43329
N 1.0  		0.3193367919158903 		0.17077240160957896  0.750690314209073 		Uiso   ? 		N 		-0.43329
N 1.0  		0.6384001109194944 		0.4659436647364806  0.5622436830268555 		Uiso   ? 		N 		-0.43329
N 1.0  		0.47020283410086405 		0.5022573363431152  0.7198689458529075 		Uiso   ? 		N 		-0.43329
N 1.0  		0.818907371571458 		0.7942388850721367  0.5262150515237578 		Uiso   ? 		N 		-0.43329
N 1.0  		0.6551353636953864 		0.8411031504563746  0.7429497879095794 		Uiso   ? 		N 		-0.43329
N 1.0  		-0.033356201104828384 		0.12538031210128572  0.5561919988290694 		Uiso   ? 		N 		-0.43329
N 1.0  		0.8137708747272333 		0.17666110511335756  0.7270465247851653 		Uiso   ? 		N 		-0.43329
N 1.0  		0.1443099956622098 		0.46201786240062814  0.5235410515293873 		Uiso   ? 		N 		-0.43329
N 1.0  		-0.0019392100465437379 		0.5103543036608107  0.7665935773334872 		Uiso   ? 		N 		-0.43329
N 1.0  		0.293949240258375 		0.7910491706742566  0.5464811567442502 		Uiso   ? 		N 		-0.43329
N 1.0  		0.13679729706995097 		0.838404161350476  0.7128321037624588 		Uiso   ? 		N 		-0.43329
N 1.0  		0.2999955439419843 		0.1580135440180587  0.5853245250835273 		Uiso   ? 		N 		-0.43198
N 1.0  		0.15180509900877284 		0.08219648640690942  0.7589937878758025 		Uiso   ? 		N 		-0.43198
N 1.0  		0.48837605973894765 		0.49440573167141044  0.5540809462019348 		Uiso   ? 		N 		-0.43198
N 1.0  		0.30432291912721426 		0.41613504760035336  0.790659577282822 		Uiso   ? 		N 		-0.43198
N 1.0  		0.6371412719232105 		0.8246638531749928  0.593346525066639 		Uiso   ? 		N 		-0.43198
N 1.0  		0.48471861878910416 		0.7522818726077142  0.7639195773391166 		Uiso   ? 		N 		-0.43198
N 1.0  		0.8170146814192031 		0.15212484051428013  0.5618214725014284 		Uiso   ? 		N 		-0.43198
N 1.0  		0.6455623654808065 		0.09225635489253117  0.7877041036048336 		Uiso   ? 		N 		-0.43198
N 1.0  		-0.025361759408950274 		0.4890077534596134  0.5995389461062338 		Uiso   ? 		N 		-0.43198
N 1.0  		0.8335836396239751 		0.4296299931298459  0.773630419423936 		Uiso   ? 		N 		-0.43198
N 1.0  		0.14542789438387127 		0.8165668858572971  0.5618214725014284 		Uiso   ? 		N 		-0.43198
N 1.0  		0.9795031456313938 		0.7554715870055944  0.8117701035541682 		Uiso   ? 		N 		-0.43198
N 1.0  		0.48680274613214336 		0.2583668662282854  0.6062943145130646 		Uiso   ? 		N 		-0.43172
N 1.0  		0.4987367856540099 		0.12881538914515656  0.7930521035935745 		Uiso   ? 		N 		-0.43172
N 1.0  		0.6305186587716254 		0.5925507900677202  0.6352861039257135 		Uiso   ? 		N 		-0.43172
N 1.0  		0.6573575585560317 		0.45711060948081267  0.8168366298592914 		Uiso   ? 		N 		-0.43172
N 1.0  		0.8214666518822389 		0.9323780547649426  0.6020722092587953 		Uiso   ? 		N 		-0.43172
N 1.0  		0.8413503170477873 		0.7962017862400629  0.8086738930343709 		Uiso   ? 		N 		-0.43172
N 1.0  		0.9657074511177348 		0.2608204926881932  0.6430266302252071 		Uiso   ? 		N 		-0.43172
N 1.0  		0.005304057305369057 		0.13470409264893515  0.846672840322794 		Uiso   ? 		N 		-0.43172
N 1.0  		0.1541573593770997 		0.5947590538816371  0.6022129461006043 		Uiso   ? 		N 		-0.43172
N 1.0  		0.1600912094826115 		0.46128177446265584  0.796148314113372 		Uiso   ? 		N 		-0.43172
N 1.0  		0.30238370908067047 		0.926489351261164  0.6365527355019942 		Uiso   ? 		N 		-0.43172
N 1.0  		0.31702317977480443 		0.7976739621160075  0.8217624193226055 		Uiso   ? 		N 		-0.43172
N 1.0  		0.6377515216336986 		0.45784669741878503  0.6683592617508226 		Uiso   ? 		N 		-0.43448
N 1.0  		0.6645949500510349 		0.22254391991363237  0.8615909455545454 		Uiso   ? 		N 		-0.43448
N 1.0  		0.8146816398474517 		0.7930120718421828  0.6334565249821968 		Uiso   ? 		N 		-0.43448
N 1.0  		0.8457595976116421 		0.5606536460889195  0.8566651560912312 		Uiso   ? 		N 		-0.43448
N 1.0  		-0.027283796520720674 		0.12562567474727648  0.6807441038300124 		Uiso   ? 		N 		-0.43448
N 1.0  		0.0023929210895939357 		0.893856119344391  0.8959307349559352 		Uiso   ? 		N 		-0.43448
N 1.0  		0.1401782296825813 		0.4495043674550987  0.6351453670839045 		Uiso   ? 		N 		-0.43448
N 1.0  		0.16510277007206325 		0.21886348022377075  0.8390730508651093 		Uiso   ? 		N 		-0.43448
N 1.0  		0.2947904033248452 		0.7893316321523212  0.6741294722649906 		Uiso   ? 		N 		-0.43448
N 1.0  		0.328687674397336 		0.5562371184610855  0.8680648402777583 		Uiso   ? 		N 		-0.43448
N 1.0  		0.47571978720559693 		0.12145450976543332  0.6400711565472187 		Uiso   ? 		N 		-0.43448
N 1.0  		0.5031882691560562 		0.885268426734714  0.8449839982210863 		Uiso   ? 		N 		-0.43448
N 1.0  		0.4740117824830805 		0.36878005692413385  0.683136630140765 		Uiso   ? 		N 		-0.43519
N 1.0  		0.5160299893642922 		0.15065266463833546  0.8936789454869917 		Uiso   ? 		N 		-0.43519
N 1.0  		0.6423284116676193 		0.7054176072234764  0.7100173669262793 		Uiso   ? 		N 		-0.43519
N 1.0  		0.6867673443810163 		0.4917067425655119  0.9078933665096981 		Uiso   ? 		N 		-0.43519
N 1.0  		0.8157090785267641 		0.04539208950829326  0.6869365248696073 		Uiso   ? 		N 		-0.43519
N 1.0  		0.8620368870384536 		0.8227009520070666  0.9119747349221585 		Uiso   ? 		N 		-0.43519
N 1.0  		-0.018187671799863275 		0.3724604966139955  0.7274687353105921 		Uiso   ? 		N 		-0.43519
N 1.0  		0.016443843640942937 		0.1582589066640495  0.9434997874873688 		Uiso   ? 		N 		-0.43519
N 1.0  		0.13447922094600262 		0.7117970360192365  0.6782108406774509 		Uiso   ? 		N 		-0.43519
N 1.0  		0.17891998784436916 		0.48066542349592706  0.8981825244248789 		Uiso   ? 		N 		-0.43519
N 1.0  		0.3094172130332475 		0.041711649818431645  0.7138172616551216 		Uiso   ? 		N 		-0.43519
N 1.0  		0.3417160278792694 		0.8062616547256847  0.9116932612385404 		Uiso   ? 		N 		-0.43519
N 1.0  		0.5020917800340525 		0.18524879772303465  0.5217114725858706 		Uiso   ? 		N 		-0.41712
N 1.0  		0.33044004053609255 		0.22867798606340173  0.7573049457740949 		Uiso   ? 		N 		-0.41712
N 1.0  		0.6404209020515841 		0.5167337324565708  0.5469033672696771 		Uiso   ? 		N 		-0.41712
N 1.0  		0.48053713482234894 		0.5582000196290117  0.7315501037230525 		Uiso   ? 		N 		-0.41712
N 1.0  		0.8335660120532457 		0.8528805574639318  0.5169264199643654 		Uiso   ? 		N 		-0.41712
N 1.0  		0.6654127233488547 		0.8977819216802434  0.7526606299943986 		Uiso   ? 		N 		-0.41712
N 1.0  		-0.027460122279679283 		0.1800961821572284  0.5443701041171156 		Uiso   ? 		N 		-0.41712
N 1.0  		0.8208520841729109 		0.231622337815291  0.7363351563445576 		Uiso   ? 		N 		-0.41712
N 1.0  		0.15880428941683672 		0.5182059083325156  0.5124228410264783 		Uiso   ? 		N 		-0.41712
N 1.0  		0.01530218184863058 		0.5694867013445873  0.7751785246838347 		Uiso   ? 		N 		-0.41712
N 1.0  		0.3032006377566457 		-0.15261556580626168  0.5333926304560155 		Uiso   ? 		N 		-0.41712
N 1.0  		0.14156518634258808 		0.8921385808224557  0.7247947353162216 		Uiso   ? 		N 		-0.41712
N 1.0  		0.3192896223927011 		0.22082638139169694  0.5870133671852351 		Uiso   ? 		N 		-0.41693
N 1.0  		0.16458419728502705 		0.14132888409068603  0.7539272615706795 		Uiso   ? 		N 		-0.41693
N 1.0  		0.49016028897612335 		0.5464226126214545  0.5668879988065515 		Uiso   ? 		N 		-0.41693
N 1.0  		0.3129660960929108 		0.47379526940818534  0.7822153667742834 		Uiso   ? 		N 		-0.41693
N 1.0  		0.6586982059558397 		0.8847777014427324  0.6005241039988967 		Uiso   ? 		N 		-0.41693
N 1.0  		0.49594454716818726 		0.8104328197075278  0.75660126156505 		Uiso   ? 		N 		-0.41693
N 1.0  		0.8190442701741405 		0.20463244675630582  0.5729396830043375 		Uiso   ? 		N 		-0.41693
N 1.0  		0.6533708558569213 		0.14697222494847384  0.7743341036329808 		Uiso   ? 		N 		-0.41693
N 1.0  		-0.004475165238741752 		0.5486308764353716  0.6069979987221095 		Uiso   ? 		N 		-0.41693
N 1.0  		0.8498764627935349 		0.48729021493767793  0.7637788404973077 		Uiso   ? 		N 		-0.41693
N 1.0  		0.14825930038295837 		0.8715281185592306  0.5709693672190119 		Uiso   ? 		N 		-0.41693
N 1.0  		-0.01816778773324179 		0.8089606438315832  0.80191852462754 		Uiso   ? 		N 		-0.41693
N 1.0  		0.30963574173039754 		0.9792423201491806  0.6206494723775801 		Uiso   ? 		N 		-0.41681
N 1.0  		0.3360302317394794 		0.8577878103837473  0.8287992614130543 		Uiso   ? 		N 		-0.41681
N 1.0  		0.49936055661322015 		0.3157817253901266  0.5963019987446274 		Uiso   ? 		N 		-0.41681
N 1.0  		0.5015922633756813 		0.18254980861713613  0.8052962088309554 		Uiso   ? 		N 		-0.41681
N 1.0  		0.6399701294583601 		0.6480027480616352  0.6240271565809955 		Uiso   ? 		N 		-0.41681
N 1.0  		0.6706514475903937 		0.5159976445185985  0.8237327351079311 		Uiso   ? 		N 		-0.41681
N 1.0  		0.8393455142944019 		0.9915104524487194  0.5968649461118632 		Uiso   ? 		N 		-0.41681
N 1.0  		0.8436340629433343 		0.8509176562960056  0.8144441035485387 		Uiso   ? 		N 		-0.41681
N 1.0  		-0.027345639523667614 		0.3150456374521543  0.6305010513042084 		Uiso   ? 		N 		-0.41681
N 1.0  		0.02719616126920875 		0.19506330356266566  0.8520208403115351 		Uiso   ? 		N 		-0.41681
N 1.0  		0.1736704044770346 		0.6529100009814507  0.5902503145468414 		Uiso   ? 		N 		-0.41681
N 1.0  		0.16701686982397607 		0.515506919226617  0.806985050932663 		Uiso   ? 		N 		-0.41681
N 1.0  		0.48054461754625044 		0.17445284129944058  0.6525967354682174 		Uiso   ? 		N 		-0.41902
N 1.0  		0.5103768842608782 		0.9434193738345276  0.8403396824413901 		Uiso   ? 		N 		-0.41902
N 1.0  		0.6580904557003673 		0.5172244577485524  0.6796182090955406 		Uiso   ? 		N 		-0.41902
N 1.0  		0.6755995906349406 		0.27897732849151047  0.8510356824188722 		Uiso   ? 		N 		-0.41902
N 1.0  		0.8151011176372016 		0.8452743154382177  0.6426044196997801 		Uiso   ? 		N 		-0.41902
N 1.0  		0.8544027745773386 		0.6183138678967515  0.8503319982098274 		Uiso   ? 		N 		-0.41902
N 1.0  		-0.006029163073869553 		0.185984885661007  0.683277366982574 		Uiso   ? 		N 		-0.41902
N 1.0  		0.0009897977418268367 		0.9458730002944352  0.886501366554734 		Uiso   ? 		N 		-0.41902
N 1.0  		0.1408824128124136 		0.498086171361272  0.6500634723156559 		Uiso   ? 		N 		-0.41902
N 1.0  		0.1752333782440665 		0.27652370203160276  0.8348509456108402 		Uiso   ? 		N 		-0.41902
N 1.0  		0.31893008877086104 		0.8499362057120424  0.6836995775080008 		Uiso   ? 		N 		-0.41902
N 1.0  		0.331788511636769 		0.6104622632250467  0.8584947350347479 		Uiso   ? 		N 		-0.41902
N 1.0  		0.4874940899671877 		0.42889390519187365  0.6768034722593611 		Uiso   ? 		N 		-0.41783
N 1.0  		0.5287850159179622 		0.21101187555206596  0.8891753665491045 		Uiso   ? 		N 		-0.41783
N 1.0  		0.6479703333521589 		0.757925213465502  0.6950992616945278 		Uiso   ? 		N 		-0.41783
N 1.0  		0.6953600567555849 		0.5454411620374914  0.8953677875886994 		Uiso   ? 		N 		-0.41783
N 1.0  		0.832076438010036 		0.10575130042202376  0.683136630140765 		Uiso   ? 		N 		-0.41783
N 1.0  		0.8825072984868509 		0.8840416135047602  0.9046564191480918 		Uiso   ? 		N 		-0.41783
N 1.0  		-0.020637971909541725 		0.4215330258121504  0.7159283142822561 		Uiso   ? 		N 		-0.41783
N 1.0  		0.0191349746354533 		0.20953969967612132  0.9283002085719996 		Uiso   ? 		N 		-0.41783
N 1.0  		0.1591818405952949 		0.7697026204730593  0.6658259985982611 		Uiso   ? 		N 		-0.41783
N 1.0  		0.18724326897859178 		0.535135930905879  0.8838273665603635 		Uiso   ? 		N 		-0.41783
N 1.0  		0.31448740289166277 		0.09520070664442046  0.7032619985194484 		Uiso   ? 		N 		-0.41783
N 1.0  		0.3478005251541637 		0.8622043380115811  0.9064859980916085 		Uiso   ? 		N 		-0.41783
N 1.0  		0.5554847282787604 		0.23211306310727256  0.5357851567667681 		Uiso   ? 		N 		-0.60851
N 1.0  		0.387855027955325 		0.27848660319952895  0.750690314209073 		Uiso   ? 		N 		-0.60851
N 1.0  		0.6942869740861195 		0.561144371380901  0.5322667357215437 		Uiso   ? 		N 		-0.60851
N 1.0  		0.536510513334484 		0.599175581509471  0.7481570510565114 		Uiso   ? 		N 		-0.60851
N 1.0  		0.8901346581441778 		-0.09814505839630976  0.5255113673147129 		Uiso   ? 		N 		-0.60851
N 1.0  		0.7218397962201519 		0.9502895279222693  0.7470311563220396 		Uiso   ? 		N 		-0.60851
N 1.0  		0.026741119686066586 		0.22475218372754935  0.5295927357271731 		Uiso   ? 		N 		-0.60851
N 1.0  		0.8679971623375428 		0.26769064677593485  0.7594159984012295 		Uiso   ? 		N 		-0.60851
N 1.0  		0.21568041435537713 		0.5694867013445873  0.5198818936423539 		Uiso   ? 		N 		-0.60851
N 1.0  		0.06436431385614705 		0.6183138678967515  0.7570234720904768 		Uiso   ? 		N 		-0.60851
N 1.0  		0.35951798382283895 		-0.10967710275787615  0.5212892620604437 		Uiso   ? 		N 		-0.60851
N 1.0  		0.19575763068548602 		0.9350770438708411  0.7414016826496806 		Uiso   ? 		N 		-0.60851
N 1.0  		0.38081181710798806 		0.2605751300422024  0.5870133671852351 		Uiso   ? 		N 		-0.60965
N 1.0  		0.2209608055651962 		0.18991068799685937  0.7594159984012295 		Uiso   ? 		N 		-0.60965
N 1.0  		0.5399145114226855 		0.5881342624398862  0.5849023145581004 		Uiso   ? 		N 		-0.60965
N 1.0  		0.3642230238455161 		0.5125625674747277  0.7626529457628358 		Uiso   ? 		N 		-0.60965
N 1.0  		0.7205555706023372 		0.9247718127392287  0.5968649461118632 		Uiso   ? 		N 		-0.60965
N 1.0  		0.5554274952426985 		0.8609775247816273  0.762230735237409 		Uiso   ? 		N 		-0.60965
N 1.0  		0.866329623343349 		0.24438119540681127  0.5939094724338748 		Uiso   ? 		N 		-0.60965
N 1.0  		0.7126653854816875 		0.1962901167926195  0.773489682582127 		Uiso   ? 		N 		-0.60965
N 1.0  		0.050240867485111806 		0.5930415153597016  0.5954575776937735 		Uiso   ? 		N 		-0.60965
N 1.0  		0.9040142872143757 		0.5373441947197959  0.7771488404691603 		Uiso   ? 		N 		-0.60965
N 1.0  		0.20342670632001458 		0.9210913730493671  0.581946840880112 		Uiso   ? 		N 		-0.60965
N 1.0  		0.025903819982480203 		0.8435567769162824  0.7770081036273514 		Uiso   ? 		N 		-0.60965
N 1.0  		0.36396975929293046 		0.018647561095298852  0.6039017882023121 		Uiso   ? 		N 		-0.60945
N 1.0  		0.3985667338712456 		0.8999901854941604  0.829643682463908 		Uiso   ? 		N 		-0.60945
N 1.0  		0.558083354411862 		0.3660810678182354  0.6019314724169864 		Uiso   ? 		N 		-0.60945
N 1.0  		0.5567902175122104 		0.226224359603494  0.8206365245881337 		Uiso   ? 		N 		-0.60945
N 1.0  		0.6943486711050437 		0.6857885955442143  0.6058721039876377 		Uiso   ? 		N 		-0.60945
N 1.0  		0.7289974084895452 		0.5638433604867995  0.8179625245937632 		Uiso   ? 		N 		-0.60945
N 1.0  		0.8928647616590083 		0.03778584748257925  0.6106571566091429 		Uiso   ? 		N 		-0.60945
N 1.0  		0.8955155082591513 		0.8990087349101974  0.829643682463908 		Uiso   ? 		N 		-0.60945
N 1.0  		0.02175999363709863 		0.34866031995289043  0.6067165250384915 		Uiso   ? 		N 		-0.60945
N 1.0  		0.07520231889196605 		0.239228579841005  0.8327398929837054 		Uiso   ? 		N 		-0.60945
N 1.0  		0.22333713765610744 		0.7012464422416332  0.6054498934622107 		Uiso   ? 		N 		-0.60945
N 1.0  		0.21789048420020224 		0.5564824811070762  0.8255623140514478 		Uiso   ? 		N 		-0.60945
N 1.0  		0.051922365680095554 		0.22794189812542942  0.672159156479665 		Uiso   ? 		N 		-0.61019
N 1.0  		0.05607981024930006 		-0.0034350770438708413  0.8762275771026788 		Uiso   ? 		N 		-0.61019
N 1.0  		0.1946105309883318 		0.5451957993915006  0.6645593670219804 		Uiso   ? 		N 		-0.61019
N 1.0  		0.22773701997713552 		0.3275591323976838  0.8472357876900298 		Uiso   ? 		N 		-0.61019
N 1.0  		0.37882689842122413 		0.8923839434684464  0.6739887354231816 		Uiso   ? 		N 		-0.61019
N 1.0  		0.3823357537046328 		0.6529100009814507  0.8392137877069183 		Uiso   ? 		N 		-0.61019
N 1.0  		0.533976911613279 		0.21714594170183532  0.6700481038525303 		Uiso   ? 		N 		-0.61019
N 1.0  		0.5594390162683945 		0.9922465403866915  0.8555392613567594 		Uiso   ? 		N 		-0.61019
N 1.0  		0.7146948282526022 		0.5628619099028365  0.6672333670163507 		Uiso   ? 		N 		-0.61019
N 1.0  		0.730105454332424 		0.3297673962116008  0.8607465245036915 		Uiso   ? 		N 		-0.61019
N 1.0  		0.8631378234594317 		0.8835508882127786  0.6666704196491149 		Uiso   ? 		N 		-0.61019
N 1.0  		0.9066281874472137 		0.6683678476788695  0.8620131560799723 		Uiso   ? 		N 		-0.61019
N 1.0  		0.5444752994189133 		0.4769849838060654  0.6852476827678996 		Uiso   ? 		N 		-0.60780
N 1.0  		0.5890345907452315 		0.2571400529983316  0.886219892871116 		Uiso   ? 		N 		-0.60780
N 1.0  		0.7048112677993077 		0.8023358523898323  0.6824329459317201 		Uiso   ? 		N 		-0.60780
N 1.0  		0.7553642720650924 		0.5910786141917754  0.886782840238352 		Uiso   ? 		N 		-0.60780
N 1.0  		0.8917366857654851 		0.1494258514083816  0.6912993669656855 		Uiso   ? 		N 		-0.60780
N 1.0  		0.9382047692817514 		0.9304151535970164  0.9176042085945174 		Uiso   ? 		N 		-0.60780
N 1.0  		0.028562113956591972 		0.467661203258416  0.6965066301126176 		Uiso   ? 		N 		-0.60780
N 1.0  		0.06854522952795714 		0.24928844832662678  0.9074711559842713 		Uiso   ? 		N 		-0.60780
N 1.0  		0.21255719359430691 		0.8131318088134263  0.6813070511972483 		Uiso   ? 		N 		-0.60780
N 1.0  		0.24635817777646046 		0.5849445480420061  0.8829829455095096 		Uiso   ? 		N 		-0.60780
N 1.0  		0.3638166449935658 		0.13691235646285213  0.6841217880334278 		Uiso   ? 		N 		-0.60780
N 1.0  		0.40509283281451536 		0.9117675925017177  0.8983232612666879 		Uiso   ? 		N 		-0.60780
N 1.0  		0.6341713437705611 		0.20929433703013053  0.5719545251116747 		Uiso   ? 		N 		-0.39834
N 1.0  		0.47477414024592035 		0.2627833938561194  0.716631998491301 		Uiso   ? 		N 		-0.39834
N 1.0  		0.7906519408495511 		0.540533909117676  0.5245262094220501 		Uiso   ? 		N 		-0.39834
N 1.0  		0.6340870035869879 		0.583963097458043  0.7377425247626473 		Uiso   ? 		N 		-0.39834
N 1.0  		0.9734567116049075 		-0.1167926194916086  0.5602733672415298 		Uiso   ? 		N 		-0.39834
N 1.0  		0.8175784112354023 		0.9377760329767397  0.7218392616382331 		Uiso   ? 		N 		-0.39834
N 1.0  		0.11856045889401803 		0.19972519383649034  0.5198818936423539 		Uiso   ? 		N 		-0.39834
N 1.0  		0.9650653383088275 		0.24806163509667287  0.7661713668080603 		Uiso   ? 		N 		-0.39834
N 1.0  		0.3033420816761461 		0.5505937776032978  0.5518291567329913 		Uiso   ? 		N 		-0.39834
N 1.0  		0.1405579883480098 		0.5947590538816371  0.7183208405930088 		Uiso   ? 		N 		-0.39834
N 1.0  		0.4577319445923314 		-0.12488958680930416  0.5281853673090835 		Uiso   ? 		N 		-0.39834
N 1.0  		0.2923679569666795 		0.9149573068995978  0.7474533668474665 		Uiso   ? 		N 		-0.39834
N 1.0  		0.45749156834345556 		0.2252429090195309  0.559428946190676 		Uiso   ? 		N 		-0.39349
N 1.0  		0.30644063009465333 		0.17175385219354206  0.7971334720060348 		Uiso   ? 		N 		-0.39349
N 1.0  		0.6436555378187052 		0.5793012071842184  0.587435577710662 		Uiso   ? 		N 		-0.39349
N 1.0  		0.4639572851667475 		0.4978408087152812  0.7670157878589142 		Uiso   ? 		N 		-0.39349
N 1.0  		0.7907073887095651 		0.895082932574345  0.5559105251454516 		Uiso   ? 		N 		-0.39349
N 1.0  		0.644429842288309 		0.8430660516243008  0.7877041036048336 		Uiso   ? 		N 		-0.39349
N 1.0  		-0.025590237959983927 		0.24290901953086663  0.5901095777050325 		Uiso   ? 		N 		-0.39349
N 1.0  		0.8116964375950659 		0.18058690744920994  0.7781339983618232 		Uiso   ? 		N 		-0.39349
N 1.0  		0.11736735858859837 		0.5594268328589656  0.5516884198911822 		Uiso   ? 		N 		-0.39349
N 1.0  		-0.012537325794476584 		0.515506919226617  0.8109256825033143 		Uiso   ? 		N 		-0.39349
N 1.0  		0.3090648701672637 		0.9152026695455885  0.581102419829258 		Uiso   ? 		N 		-0.39349
N 1.0  		0.123872421234211 		0.8278535675728728  0.7646232615481615 		Uiso   ? 		N 		-0.39349
N 1.0  		0.45925700109497813 		0.0009814505839630975  0.6122052618690416 		Uiso   ? 		N 		-0.39409
N 1.0  		0.47756212642571294 		0.8722642064972029  0.7971334720060348 		Uiso   ? 		N 		-0.39409
N 1.0  		0.6430659834289072 		0.3516046717047797  0.6385230512873199 		Uiso   ? 		N 		-0.39409
N 1.0  		0.658708642770713 		0.21714594170183532  0.8197921035372798 		Uiso   ? 		N 		-0.39409
N 1.0  		0.7899863569380383 		0.6654234959269801  0.6064350513548736 		Uiso   ? 		N 		-0.39409
N 1.0  		0.8209241533566412 		0.5420060849936207  0.7988223141077425 		Uiso   ? 		N 		-0.39409
N 1.0  		-0.030856897286991005 		0.008833055255667877  0.6449969460105328 		Uiso   ? 		N 		-0.39409
N 1.0  		-0.0028318439511549887 		0.8872313279026403  0.8423099982267158 		Uiso   ? 		N 		-0.39409
N 1.0  		0.1150579664285089 		0.321915791539896  0.6020722092587953 		Uiso   ? 		N 		-0.39409
N 1.0  		0.14085665288888227 		0.20266954558837963  0.7919262088591027 		Uiso   ? 		N 		-0.39409
N 1.0  		0.3068628836663187 		0.6808813426243989  0.6404933670726456 		Uiso   ? 		N 		-0.39409
N 1.0  		0.3227925694941663 		0.549121601727353  0.8200735772208977 		Uiso   ? 		N 		-0.39409
N 1.0  		0.11333337270730968 		0.18672097359897932  0.6317676828804891 		Uiso   ? 		N 		-0.39624
N 1.0  		0.1524018118293935 		0.980959858671116  0.8565244192494224 		Uiso   ? 		N 		-0.39624
N 1.0  		0.29756733538589775 		0.5373441947197959  0.6635742091293174 		Uiso   ? 		N 		-0.39624
N 1.0  		0.32224883740357746 		0.3125920109922466  0.8708795771139377 		Uiso   ? 		N 		-0.39624
N 1.0  		0.44760284631221897 		0.854843458631858  0.6371156828692301 		Uiso   ? 		N 		-0.39624
N 1.0  		0.4875160678617906 		0.6465305721856904  0.8430136824357607 		Uiso   ? 		N 		-0.39624
N 1.0  		0.6373498987326561 		0.20757679850819513  0.6672333670163507 		Uiso   ? 		N 		-0.39624
N 1.0  		0.6623060102525119 		0.9846402983609776  0.8665167350178595 		Uiso   ? 		N 		-0.39624
N 1.0  		0.7945225862506919 		0.531700853862008  0.637819367078275 		Uiso   ? 		N 		-0.39624
N 1.0  		0.8311146566876325 		0.3150456374521543  0.8700351560630839 		Uiso   ? 		N 		-0.39624
N 1.0  		-0.030262992573319436 		0.8774168220630092  0.6656852617564522 		Uiso   ? 		N 		-0.39624
N 1.0  		0.0020616791713346516 		0.6573265286092845  0.8886124191818686 		Uiso   ? 		N 		-0.39624
N 1.0  		0.6276482802522183 		0.45293944449896956  0.717054209016728 		Uiso   ? 		N 		-0.39546
N 1.0  		0.6801377677915529 		0.2404553930709589  0.9154931559673828 		Uiso   ? 		N 		-0.39546
N 1.0  		0.8035006735045873 		0.7910491706742566  0.6900327353894047 		Uiso   ? 		N 		-0.39546
N 1.0  		0.8526560569775139 		0.5795465698302091  0.9115525243967316 		Uiso   ? 		N 		-0.39546
N 1.0  		0.9658688760789577 		0.12047305918147022  0.7285946300450639 		Uiso   ? 		N 		-0.39546
N 1.0  		1.0101856650033851 		0.8963097458042988  0.9533513664139971 		Uiso   ? 		N 		-0.39546
N 1.0  		0.1358191863918765 		0.46373540092256355  0.6912993669656855 		Uiso   ? 		N 		-0.39546
N 1.0  		0.16448521594672982 		0.22867798606340173  0.8997306296847776 		Uiso   ? 		N 		-0.39546
N 1.0  		0.2807702072820254 		0.7782903130827364  0.7209948405873793 		Uiso   ? 		N 		-0.39546
N 1.0  		0.3451309174183002 		0.5780743939542644  0.9118339980803495 		Uiso   ? 		N 		-0.39546
N 1.0  		0.4697811811491774 		0.1295514770831289  0.6914401038074945 		Uiso   ? 		N 		-0.39546
N 1.0  		0.5068381137230091 		0.8985180096182158  0.9062045244079905 		Uiso   ? 		N 		-0.39546
H 1.0  		0.3122962755165134 		0.07041907939935224  0.5615399988178106 		Uiso   ? 		H 		0.29922
H 1.0  		0.15736136561079278 		0.12390813622534107  0.7163505248076831 		Uiso   ? 		H 		0.29922
H 1.0  		0.4755654393412413 		0.3935616841692021  0.5205855778513988 		Uiso   ? 		H 		0.29922
H 1.0  		0.30271329512301637 		0.4396898616154677  0.745201577378523 		Uiso   ? 		H 		0.29922
H 1.0  		0.6534094227502071 		0.747129257041908  0.5625251567104733 		Uiso   ? 		H 		0.29922
H 1.0  		0.4895605574144638 		0.7849151045244872  0.7180393669093909 		Uiso   ? 		H 		0.29922
H 1.0  		0.8046401601349629 		0.0593777603297674  0.5267779988909936 		Uiso   ? 		H 		0.29922
H 1.0  		0.6460600479542081 		0.11237609186377467  0.7467496826384218 		Uiso   ? 		H 		0.29922
H 1.0  		0.9815244560495068 		0.40337619000883307  0.5674509461737874 		Uiso   ? 		H 		0.29922
H 1.0  		0.8307430627000396 		0.46177249975463736  0.7318315774066704 		Uiso   ? 		H 		0.29922
H 1.0  		0.1298178770695197 		0.7262734321326921  0.5239632620548141 		Uiso   ? 		H 		0.29922
H 1.0  		-0.030771420513527714 		0.7603788399254099  0.7772895773109693 		Uiso   ? 		H 		0.29922
H 1.0  		0.1196199879897276 		0.05692413386985966  0.5357851567667681 		Uiso   ? 		H 		0.29797
H 1.0  		-0.006923712497405844 		0.040975561880459324  0.8059998930400003 		Uiso   ? 		H 		0.29797
H 1.0  		0.32031063360404666 		0.44386102659731086  0.5720952619534837 		Uiso   ? 		H 		0.29797
H 1.0  		0.12558850930060764 		0.33320247325547164  0.7515347352599269 		Uiso   ? 		H 		0.29797
H 1.0  		0.46415521551830835 		0.7498282461478065  0.5498588409476656 		Uiso   ? 		H 		0.29797
H 1.0  		0.3236653683410776 		0.7017371675336147  0.796570524638799 		Uiso   ? 		H 		0.29797
H 1.0  		0.6539744831064984 		0.09888114633428208  0.5774432619422247 		Uiso   ? 		H 		0.29797
H 1.0  		0.4745039947266066 		0.014476396113455688  0.7589937878758025 		Uiso   ? 		H 		0.29797
H 1.0  		0.806012215997234 		0.41613504760035336  0.5521106304166092 		Uiso   ? 		H 		0.29797
H 1.0  		0.656803795277604 		0.3727058592599863  0.79094105096644 		Uiso   ? 		H 		0.29797
H 1.0  		-0.016582722412617823 		0.7628324663853175  0.5796950514111683 		Uiso   ? 		H 		0.29797
H 1.0  		0.8272911484846475 		0.7005103543036608  0.7741933667911719 		Uiso   ? 		H 		0.29797
H 1.0  		0.31581707750668603 		0.20070664442045344  0.6403526302308366 		Uiso   ? 		H 		0.29965
H 1.0  		0.3302769273739226 		0.07238198056727844  0.8164144193338644 		Uiso   ? 		H 		0.29965
H 1.0  		0.46702892143068775 		0.5167337324565708  0.5895466303377966 		Uiso   ? 		H 		0.29965
H 1.0  		0.48957451661525386 		0.3965060359210914  0.7898151562319681 		Uiso   ? 		H 		0.29965
H 1.0  		0.6486079175281365 		0.8705466679752675  0.6417599986489263 		Uiso   ? 		H 		0.29965
H 1.0  		0.6711488704207837 		0.7375601138482677  0.8211994719553696 		Uiso   ? 		H 		0.29965
H 1.0  		0.7989382296324462 		0.1788693689272745  0.5925021040157851 		Uiso   ? 		H 		0.29965
H 1.0  		0.8329059953467092 		0.07213661792128767  0.8123330509214042 		Uiso   ? 		H 		0.29965
H 1.0  		-0.009927694551556676 		0.5449504367455099  0.6472487354794764 		Uiso   ? 		H 		0.29965
H 1.0  		0.008028284963289611 		0.4117185199725194  0.8387915771814914 		Uiso   ? 		H 		0.29965
H 1.0  		0.12843148870445797 		0.8467464913141625  0.5954575776937735 		Uiso   ? 		H 		0.29965
H 1.0  		0.14831979616192517 		0.7233290803808029  0.7888299983393053 		Uiso   ? 		H 		0.29965
H 1.0  		0.4654270074683694 		0.381784277161645  0.6288122092025006 		Uiso   ? 		H 		0.29932
H 1.0  		0.49833452980795506 		0.16880950044165277  0.8340065245599863 		Uiso   ? 		H 		0.29932
H 1.0  		0.6473981145650449 		0.73510648738836  0.6569595775642957 		Uiso   ? 		H 		0.29932
H 1.0  		0.6705657925078743 		0.5052016880950045  0.8625761034472081 		Uiso   ? 		H 		0.29932
H 1.0  		0.7972335523029022 		0.05348905682598882  0.6285307355188827 		Uiso   ? 		H 		0.29932
H 1.0  		0.8392175916236235 		0.8420846010403377  0.8637019981816799 		Uiso   ? 		H 		0.29932
H 1.0  		-0.014033668282620176 		0.40116792619491615  0.6673741038581598 		Uiso   ? 		H 		0.29932
H 1.0  		0.015373082117437084 		0.18034154480321918  0.8873457876055878 		Uiso   ? 		H 		0.29932
H 1.0  		0.12558750305359462 		0.7122877613112181  0.6258567355245122 		Uiso   ? 		H 		0.29932
H 1.0  		0.16773303198560607 		0.5071645892629307  0.8487838929499286 		Uiso   ? 		H 		0.29932
H 1.0  		0.3125809808565958 		0.06673863970949064  0.6617446301858008 		Uiso   ? 		H 		0.29932
H 1.0  		0.3369871111269523 		0.8371773481205221  0.8693314718540389 		Uiso   ? 		H 		0.29932
H 1.0  		0.3022242966134736 		0.30866620865639416  0.7163505248076831 		Uiso   ? 		H 		0.29778
H 1.0  		0.3498811301112862 		0.0890666404946511  0.9212633664815508 		Uiso   ? 		H 		0.29778
H 1.0  		0.4753712586935752 		0.646039846893709  0.6988991564233702 		Uiso   ? 		H 		0.29778
H 1.0  		0.5177334331288452 		0.42987535577583674  0.8986047349503058 		Uiso   ? 		H 		0.29778
H 1.0  		0.6404500707020432 		0.978751594857199  0.7152246300732112 		Uiso   ? 		H 		0.29778
H 1.0  		0.6763342896392119 		0.7483560702718618  0.9237966296341124 		Uiso   ? 		H 		0.29778
H 1.0  		0.8108512328566556 		0.30596721955049566  0.7150838932314024 		Uiso   ? 		H 		0.29778
H 1.0  		0.8632773028510852 		0.09888114633428208  0.914930208600147 		Uiso   ? 		H 		0.29778
H 1.0  		-0.03976882353909955 		0.6276376484444008  0.7481570510565114 		Uiso   ? 		H 		0.29778
H 1.0  		0.024265514288812795 		0.42889390519187365  0.9557438927247498 		Uiso   ? 		H 		0.29778
H 1.0  		0.1446025570281944 		-0.014231033467464915  0.6879216827622702 		Uiso   ? 		H 		0.29778
H 1.0  		0.16997668545483113 		0.7436941799980372  0.8939604191706098 		Uiso   ? 		H 		0.29778
H 1.0  		0.48106577112225773 		0.05692413386985966  0.5381776830775207 		Uiso   ? 		H 		0.29964
H 1.0  		0.3114667181798402 		0.10403376190008834  0.7532235773616346 		Uiso   ? 		H 		0.29964
H 1.0  		0.64351600941813 		0.3979782117970361  0.5697027356427311 		Uiso   ? 		H 		0.29964
H 1.0  		0.4694412229420255 		0.430611443713809  0.7066396827228638 		Uiso   ? 		H 		0.29964
H 1.0  		0.8140450295934534 		0.7279909706546276  0.5490144198968118 		Uiso   ? 		H 		0.29964
H 1.0  		0.6634474124018126 		0.7748552360388655  0.733661156350187 		Uiso   ? 		H 		0.29964
H 1.0  		-0.03142533404517645 		0.06379428795760134  0.575754419840517 		Uiso   ? 		H 		0.29964
H 1.0  		0.8179053351548218 		0.10673275100598685  0.7218392616382331 		Uiso   ? 		H 		0.29964
H 1.0  		0.14049250930015714 		0.39233487093924824  0.530577893619836 		Uiso   ? 		H 		0.29964
H 1.0  		-0.00919820613414904 		0.4384630483855138  0.7660306299662513 		Uiso   ? 		H 		0.29964
H 1.0  		0.2966971986619128 		0.7289724212385907  0.5682953672246414 		Uiso   ? 		H 		0.29964
H 1.0  		0.1333696005611658 		0.7618510158013545  0.7107210511353241 		Uiso   ? 		H 		0.29964
H 1.0  		0.29674331292916734 		0.0920109922465404  0.6008055776825146 		Uiso   ? 		H 		0.29950
H 1.0  		0.15087266464588492 		0.012758857591520267  0.7722230510058462 		Uiso   ? 		H 		0.29950
H 1.0  		0.49022127171608 		0.42202375110413193  0.5563327356708785 		Uiso   ? 		H 		0.29950
H 1.0  		0.3027201449019056 		0.34620669349298266  0.8029036825202028 		Uiso   ? 		H 		0.29950
H 1.0  		0.6294355449143212 		0.7603788399254099  0.6013685250497505 		Uiso   ? 		H 		0.29950
H 1.0  		0.48842809887203364 		0.6823535185003436  0.773208208898509 		Uiso   ? 		H 		0.29950
H 1.0  		0.8260452134332186 		0.08391402492884485  0.5659028409138888 		Uiso   ? 		H 		0.29950
H 1.0  		0.6464196629100034 		0.022573363431151242  0.8003704193676413 		Uiso   ? 		H 		0.29950
H 1.0  		-0.0306754746001576 		0.417607223476298  0.6053091566204019 		Uiso   ? 		H 		0.29950
H 1.0  		0.8266116700224116 		0.36043772696044757  0.7919262088591027 		Uiso   ? 		H 		0.29950
H 1.0  		0.15199835474338128 		0.7481107076258711  0.5675916830155965 		Uiso   ? 		H 		0.29950
H 1.0  		0.9854449330967631 		0.6887329472961037  0.8203550509045157 		Uiso   ? 		H 		0.29950
H 1.0  		0.48527450822054696 		0.19113750122681325  0.6241678934228044 		Uiso   ? 		H 		0.30124
H 1.0  		0.4990704947022513 		0.05766022180783198  0.7933335772771924 		Uiso   ? 		H 		0.30124
H 1.0  		0.6296519630996018 		0.5240946118362941  0.6496412617902289 		Uiso   ? 		H 		0.30124
H 1.0  		0.6619674639194074 		0.3911080577092944  0.8265474719441106 		Uiso   ? 		H 		0.30124
H 1.0  		0.8103675585929657 		0.8634311512415351  0.5944724198011108 		Uiso   ? 		H 		0.30124
H 1.0  		0.8467685161322009 		0.7279909706546276  0.8144441035485387 		Uiso   ? 		H 		0.30124
H 1.0  		-0.03149279326202152 		0.19285503974874868  0.6571003144061045 		Uiso   ? 		H 		0.30124
H 1.0  		-0.0018410566462032409 		0.0613406614976936  0.8447025245374683 		Uiso   ? 		H 		0.30124
H 1.0  		0.15005284652900527 		0.5223770733143587  0.609249788191053 		Uiso   ? 		H 		0.30124
H 1.0  		0.16258268959958033 		0.39061733241731283  0.7920669457009117 		Uiso   ? 		H 		0.30124
H 1.0  		0.29978422268457855 		0.8575424477377565  0.6506264196828918 		Uiso   ? 		H 		0.30124
H 1.0  		0.30595280050003437 		0.7402591029541663  0.8434358929611877 		Uiso   ? 		H 		0.30124
H 1.0  		0.14802363107606845 		0.3810481892236726  0.6310639986714442 		Uiso   ? 		H 		0.30049
H 1.0  		0.16389210684598138 		0.1484444008244185  0.8497690508425915 		Uiso   ? 		H 		0.30049
H 1.0  		0.27235711573435406 		0.7240651683187752  0.6893290511803598 		Uiso   ? 		H 		0.30049
H 1.0  		0.33022410931180163 		0.48876239081362255  0.8793237876224763 		Uiso   ? 		H 		0.30049
H 1.0  		0.4771400188380702 		0.04907252919815488  0.6430266302252071 		Uiso   ? 		H 		0.30049
H 1.0  		0.5055899388595764 		0.8148493473353617  0.858353998192939 		Uiso   ? 		H 		0.30049
H 1.0  		0.6269417759764266 		0.3979782117970361  0.6839810511916189 		Uiso   ? 		H 		0.30049
H 1.0  		0.6638861246292836 		0.16120325841593877  0.8815755770914199 		Uiso   ? 		H 		0.30049
H 1.0  		0.8200100285184166 		0.7250466189027384  0.6385230512873199 		Uiso   ? 		H 		0.30049
H 1.0  		0.833779995433578 		0.49759544606929046  0.8846717876112172 		Uiso   ? 		H 		0.30049
H 1.0  		0.9524347120400191 		0.05790558445382275  0.6920030511747304 		Uiso   ? 		H 		0.30049
H 1.0  		0.004917270551995034 		0.8236824025910296  0.8900197875999584 		Uiso   ? 		H 		0.30049
H 1.0  		0.4726543677755335 		0.29934242810874473  0.6904549459148317 		Uiso   ? 		H 		0.29997
H 1.0  		0.5194195736157479 		0.07753459613308471  0.8960714717977443 		Uiso   ? 		H 		0.29997
H 1.0  		0.6481956628192764 		0.6359799784080872  0.7150838932314024 		Uiso   ? 		H 		0.29997
H 1.0  		0.6784482185777228 		0.42619491608597515  0.9278779980465727 		Uiso   ? 		H 		0.29997
H 1.0  		0.8135068813917291 		0.9785062322112082  0.6818699985644842 		Uiso   ? 		H 		0.29997
H 1.0  		0.8654111971901728 		0.7525272352537051  0.9153524191255739 		Uiso   ? 		H 		0.29997
H 1.0  		-0.006385969922715812 		0.30596721955049566  0.727890945836019 		Uiso   ? 		H 		0.29997
H 1.0  		0.02512393162401182 		0.09274708018451272  0.9530698927303792 		Uiso   ? 		H 		0.29997
H 1.0  		0.11122884201162558 		0.647021297477672  0.6677963143835868 		Uiso   ? 		H 		0.29997
H 1.0  		0.18157581468849895 		0.41245460791049177  0.9140857875492931 		Uiso   ? 		H 		0.29997
H 1.0  		0.3127133675102366 		0.9696731769555403  0.7139579984969306 		Uiso   ? 		H 		0.29997
H 1.0  		0.3361416790705639 		0.737314751202277  0.9263298927866739 		Uiso   ? 		H 		0.29997
H 1.0  		0.29990719441150465 		0.22965943664736485  0.5606955777669567 		Uiso   ? 		H 		0.29933
H 1.0  		0.12927391766095286 		0.2645009323780548  0.7081877879827626 		Uiso   ? 		H 		0.29933
H 1.0  		0.48450223292885713 		0.5618804593188733  0.5373332620266669 		Uiso   ? 		H 		0.29933
H 1.0  		0.319288616145688 		0.5999116694474433  0.7409794721242537 		Uiso   ? 		H 		0.29933
H 1.0  		0.6348177578944202 		-0.10305231131612523  0.5732211566879555 		Uiso   ? 		H 		0.29933
H 1.0  		0.4767289007191003 		0.940720384728629  0.7133950511296946 		Uiso   ? 		H 		0.29933
H 1.0  		0.8115900058579008 		0.2249975463735401  0.530577893619836 		Uiso   ? 		H 		0.29933
H 1.0  		0.6534742198441258 		0.27382471292570426  0.7432312615931973 		Uiso   ? 		H 		0.29933
H 1.0  		-0.03792129041600778 		0.5616350966728826  0.5805394724620222 		Uiso   ? 		H 		0.29933
H 1.0  		0.8242421230603225 		0.6089900873491021  0.7171949458585369 		Uiso   ? 		H 		0.29933
H 1.0  		0.13311966340155257 		-0.10476984983806066  0.5165042094389385 		Uiso   ? 		H 		0.29933
H 1.0  		-0.00843430615438473 		0.9431740111885367  0.7606826299775103 		Uiso   ? 		H 		0.29933
H 1.0  		0.153271867219423 		0.2500245362645991  0.5550661040945977 		Uiso   ? 		H 		0.30008
H 1.0  		0.9844051253997645 		0.18941996270487782  0.8175403140683363 		Uiso   ? 		H 		0.30008
H 1.0  		0.3004644800758492 		0.5932868780056925  0.5948946303265377 		Uiso   ? 		H 		0.30008
H 1.0  		0.15386007438524105 		0.5189419962704879  0.7768673667855424 		Uiso   ? 		H 		0.30008
H 1.0  		0.49437621683026883 		0.9250171753852194  0.5615399988178106 		Uiso   ? 		H 		0.30008
H 1.0  		0.30568348291867736 		0.8536166454019041  0.8050147351473373 		Uiso   ? 		H 		0.30008
H 1.0  		0.6345972980371994 		0.25689469035234075  0.6105164197673338 		Uiso   ? 		H 		0.30008
H 1.0  		0.48139274405059895 		0.19187358916478559  0.7554753668305783 		Uiso   ? 		H 		0.30008
H 1.0  		0.8204320870971378 		0.5822455589361076  0.5621029461850464 		Uiso   ? 		H 		0.30008
H 1.0  		0.6380969500707259 		0.5312101285700266  0.8062813667236182 		Uiso   ? 		H 		0.30008
H 1.0  		-0.03109902638688128 		0.9156933948375701  0.5913762092813133 		Uiso   ? 		H 		0.30008
H 1.0  		0.8278968372371722 		0.860241436843655  0.7789784194126771 		Uiso   ? 		H 		0.30008
H 1.0  		0.145188215730075 		0.023064088723132793  0.6044647355695479 		Uiso   ? 		H 		0.30123
H 1.0  		0.16799498050205058 		0.8901756796545295  0.8005111562094501 		Uiso   ? 		H 		0.30123
H 1.0  		0.2988494995007648 		0.3550397487486506  0.6421822091743532 		Uiso   ? 		H 		0.30123
H 1.0  		0.31826004087648563 		0.2213171066836785  0.8334435771927503 		Uiso   ? 		H 		0.30123
H 1.0  		0.48062522470981695 		0.6879968593581314  0.6257159986827031 		Uiso   ? 		H 		0.30123
H 1.0  		0.5067873081549141 		0.5567278437530672  0.795726103587945 		Uiso   ? 		H 		0.30123
H 1.0  		0.6409013949063243 		0.017911473157326527  0.6389452618127468 		Uiso   ? 		H 		0.30123
H 1.0  		0.6617457704971957 		0.904897438413976  0.8327398929837054 		Uiso   ? 		H 		0.30123
H 1.0  		0.8232599707103079 		0.35798410050053986  0.6186791565922544 		Uiso   ? 		H 		0.30123
H 1.0  		0.8429575385720705 		0.22696044754146633  0.8178217877519541 		Uiso   ? 		H 		0.30123
H 1.0  		0.9719617653496655 		0.6936402002159192  0.6510486302083187 		Uiso   ? 		H 		0.30123
H 1.0  		0.9887766023582227 		0.568750613406615  0.8562429455658043 		Uiso   ? 		H 		0.30123
H 1.0  		0.2969276897069725 		0.21690057905584456  0.6759590512085073 		Uiso   ? 		H 		0.29957
H 1.0  		0.33374806038589033 		0.9870939248208853  0.8783386297298134 		Uiso   ? 		H 		0.29957
H 1.0  		0.4814264413339878 		0.5540288546471686  0.6333157881403878 		Uiso   ? 		H 		0.29957
H 1.0  		0.5026553148573076 		0.3189714397880067  0.8644056823907249 		Uiso   ? 		H 		0.29957
H 1.0  		0.6335192811077701 		0.8879674158406126  0.6748331564740354 		Uiso   ? 		H 		0.29957
H 1.0  		0.6662883626277489 		0.6538914515654137  0.8697536823794659 		Uiso   ? 		H 		0.29957
H 1.0  		0.8219427620880718 		0.2193542055157523  0.6554114723043969 		Uiso   ? 		H 		0.29957
H 1.0  		0.8420597430895171 		0.993964078908627  0.8787608402552404 		Uiso   ? 		H 		0.29957
H 1.0  		0.9549818673349797 		0.5670330748846796  0.6987584195815613 		Uiso   ? 		H 		0.29957
H 1.0  		0.008092075810195276 		0.31749926391206207  0.8905827349671943 		Uiso   ? 		H 		0.29957
H 1.0  		0.15138787771491496 		0.8896849543625479  0.6348638934002866 		Uiso   ? 		H 		0.29957
H 1.0  		0.16801418261473805 		0.6509470998135245  0.8545541034640967 		Uiso   ? 		H 		0.29957
H 1.0  		0.3131850627421289 		0.4691333791343606  0.7169134721749191 		Uiso   ? 		H 		0.29787
H 1.0  		0.34762351744127107 		0.24094611836294044  0.9166190507018547 		Uiso   ? 		H 		0.29787
H 1.0  		0.4653019742384955 		0.8018451270978506  0.6846847354006638 		Uiso   ? 		H 		0.29787
H 1.0  		0.5201899500724005 		0.577583668662283  0.885938419187498 		Uiso   ? 		H 		0.29787
H 1.0  		0.6494844493950546 		0.1349494552949259  0.7133950511296946 		Uiso   ? 		H 		0.29787
H 1.0  		0.6864145468790763 		0.9147119442536069  0.920418945430697 		Uiso   ? 		H 		0.29787
H 1.0  		0.811816163262975 		0.46471685150652664  0.6950992616945278 		Uiso   ? 		H 		0.29787
H 1.0  		0.8640274219391157 		0.25125134949455297  0.9197152612216521 		Uiso   ? 		H 		0.29787
H 1.0  		-0.0179904880523038 		0.8020904897438415  0.7200096826947164 		Uiso   ? 		H 		0.29787
H 1.0  		0.020522791558450437 		0.587152811855923  0.9561661032501766 		Uiso   ? 		H 		0.29787
H 1.0  		0.12749470401769655 		0.13642163117087058  0.6710332617451931 		Uiso   ? 		H 		0.29787
H 1.0  		0.18413592293723657 		0.9122583177936991  0.9180264191199443 		Uiso   ? 		H 		0.29787
H 1.0  		0.6445597774531135 		0.23432132692118954  0.5739248408970004 		Uiso   ? 		H 		0.30234
H 1.0  		0.4878351357553079 		0.2880557463931691  0.7153653669150203 		Uiso   ? 		H 		0.30234
H 1.0  		0.8023810542569452 		0.5665423495926981  0.5245262094220501 		Uiso   ? 		H 		0.30234
H 1.0  		0.6442870188197951 		0.6077632741191481  0.7416831563332986 		Uiso   ? 		H 		0.30234
H 1.0  		0.9876699683893913 		-0.09176562960054963  0.5584437882980131 		Uiso   ? 		H 		0.30234
H 1.0  		0.828269145503733 		0.9625576602218079  0.7229651563727049 		Uiso   ? 		H 		0.30234
H 1.0  		0.13250428443815593 		0.22548827166552166  0.5191782094333091 		Uiso   ? 		H 		0.30234
H 1.0  		0.969302188801641 		0.2573854156443223  0.7799635773053398 		Uiso   ? 		H 		0.30234
H 1.0  		0.3160679072543233 		0.5756207674943568  0.553799472518317 		Uiso   ? 		H 		0.30234
H 1.0  		0.15146121278866995 		0.6195406811267054  0.7181801037511998 		Uiso   ? 		H 		0.30234
H 1.0  		0.46778520834367343 		-0.10010795956423595  0.5283261041508924 		Uiso   ? 		H 		0.30234
H 1.0  		0.3045044554730367 		0.937530670330749  0.7535050510452526 		Uiso   ? 		H 		0.30234
H 1.0  		0.46202424294515887 		0.23898321719501425  0.547607051478722 		Uiso   ? 		H 		0.30014
H 1.0  		0.3179484557068698 		0.19604475414662875  0.8014963141021131 		Uiso   ? 		H 		0.30014
H 1.0  		0.653945363464961 		0.6028560211993327  0.581383893512876 		Uiso   ? 		H 		0.30014
H 1.0  		0.47366426021807173 		0.5142801059966632  0.7557568405141961 		Uiso   ? 		H 		0.30014
H 1.0  		0.795329873724717 		0.9085778781038375  0.5432442093826437 		Uiso   ? 		H 		0.30014
H 1.0  		0.6572214065573506 		0.8690744920993229  0.7877041036048336 		Uiso   ? 		H 		0.30014
H 1.0  		-0.017131811074093145 		0.2645009323780548  0.5825097882473479 		Uiso   ? 		H 		0.30014
H 1.0  		0.8228033545852075 		0.20365099617234272  0.7830597878251373 		Uiso   ? 		H 		0.30014
H 1.0  		0.127190536921915 		0.580773383060163  0.5452145251679694 		Uiso   ? 		H 		0.30014
H 1.0  		0.00240321192044457 		0.5402885464716852  0.8081109456671348 		Uiso   ? 		H 		0.30014
H 1.0  		0.3198935582942115 		0.9372853076847582  0.5750507356314721 		Uiso   ? 		H 		0.30014
H 1.0  		0.11780001665010331 		0.827608204926882  0.7505495773672641 		Uiso   ? 		H 		0.30014
H 1.0  		0.46806819315777515 		0.02625380312101286  0.6123459987108505 		Uiso   ? 		H 		0.30068
H 1.0  		0.4883338734846443 		0.895082932574345  0.7917854720172938 		Uiso   ? 		H 		0.30068
H 1.0  		0.655881619420533 		0.37638629894984793  0.6364119986601853 		Uiso   ? 		H 		0.30068
H 1.0  		0.6638723114125163 		0.2355481401511434  0.8293622087802901 		Uiso   ? 		H 		0.30068
H 1.0  		0.7951324303341458 		0.6803906173324173  0.5946131566429196 		Uiso   ? 		H 		0.30068
H 1.0  		0.8327102078320514 		0.5672784375306703  0.7999482088422143 		Uiso   ? 		H 		0.30068
H 1.0  		-0.017002882156301805 		0.03484149573068996  0.6423229460161622 		Uiso   ? 		H 		0.30068
H 1.0  		0.008675981661061483 		0.9115222298557268  0.8387915771814914 		Uiso   ? 		H 		0.30068
H 1.0  		0.12020403982461648 		0.33688291294533323  0.5905317882304594 		Uiso   ? 		H 		0.30068
H 1.0  		0.15162839994781357 		0.22548827166552166  0.784467156243227 		Uiso   ? 		H 		0.30068
H 1.0  		0.32007063065717145 		0.7051722445774856  0.6458413670613866 		Uiso   ? 		H 		0.30068
H 1.0  		0.33588643434898596 		0.5748846795563843  0.8193698930118529 		Uiso   ? 		H 		0.30068
H 1.0  		0.12053213265895969 		0.20536853469427815  0.6217753671120518 		Uiso   ? 		H 		0.30155
H 1.0  		0.16287487766356426 		0.0031897143978800667  0.8622946297635903 		Uiso   ? 		H 		0.30155
H 1.0  		0.3100806707917454 		0.5623711846108549  0.6637149459711265 		Uiso   ? 		H 		0.30155
H 1.0  		0.3340830353241564 		0.33541073706938856  0.875242419210016 		Uiso   ? 		H 		0.30155
H 1.0  		0.4438678336237361 		0.8545980959858672  0.6223383144792878 		Uiso   ? 		H 		0.30155
H 1.0  		0.4990479651965914 		0.6695946609088234  0.8482209455826928 		Uiso   ? 		H 		0.30155
H 1.0  		0.6453504759284556 		0.22867798606340173  0.660759472293138 		Uiso   ? 		H 		0.30155
H 1.0  		0.672647598704954 		0.004907252919815488  0.8741165244755442 		Uiso   ? 		H 		0.30155
H 1.0  		0.806251699658086 		0.5577092943370302  0.6350046302420954 		Uiso   ? 		H 		0.30155
H 1.0  		0.838547657388237 		0.32608695652173914  0.8827014718258916 		Uiso   ? 		H 		0.30155
H 1.0  		-0.019018121724560577 		0.8977819216802434  0.6576632617733406 		Uiso   ? 		H 		0.30155
H 1.0  		0.013446825024670317 		0.6813720679163805  0.8845310507694083 		Uiso   ? 		H 		0.30155
H 1.0  		0.6338896738554058 		0.4683972911963883  0.727890945836019 		Uiso   ? 		H 		0.30208
H 1.0  		0.6839255662171232 		0.2510059868485622  0.9281594717301905 		Uiso   ? 		H 		0.30208
H 1.0  		0.8143052899089508 		0.8143586220433802  0.6958029459035727 		Uiso   ? 		H 		0.30208
H 1.0  		0.8652351310742259 		0.6055550103052312  0.9125376822893944 		Uiso   ? 		H 		0.30208
H 1.0  		0.9783164727939411 		0.1445185984885661  0.7322537879320974 		Uiso   ? 		H 		0.30208
H 1.0  		0.022777190494482125 		0.9206006477573855  0.9575734716682665 		Uiso   ? 		H 		0.30208
H 1.0  		0.1478746721076329 		0.48827166552164103  0.6945363143272919 		Uiso   ? 		H 		0.30208
H 1.0  		0.16990072058318342 		0.24290901953086663  0.8870643139219698 		Uiso   ? 		H 		0.30208
H 1.0  		0.293283542687873 		0.8033173029737953  0.7242317879489857 		Uiso   ? 		H 		0.30208
H 1.0  		0.35391571661255355 		0.598194130925508  0.91999673490527 		Uiso   ? 		H 		0.30208
H 1.0  		0.4834139084846892 		0.15384237903621553  0.6936918932764382 		Uiso   ? 		H 		0.30208
H 1.0  		0.5168649846058074 		0.9181470212974777  0.9139450507074841 		Uiso   ? 		H 		0.30208
K 1.0  		0.26721878470515964 		0.12390813622534107  0.5370517883430489 		Uiso   ? 		K 		0.79945
K 1.0  		0.1054096529711818 		0.17469820394543134  0.7314093668812435 		Uiso   ? 		K 		0.79945
K 1.0  		0.4293644012692943 		0.4588281480027481  0.5187559989078822 		Uiso   ? 		K 		0.79945
K 1.0  		0.2507791777291012 		0.4939150063794288  0.7558975773560052 		Uiso   ? 		K 		0.79945
K 1.0  		0.6162686046287582 		0.8033173029737953  0.5350814725577232 		Uiso   ? 		K 		0.79945
K 1.0  		0.4393263613991849 		0.8391402492884483  0.7378832616044564 		Uiso   ? 		K 		0.79945
K 1.0  		0.7629342850273683 		0.12513494945529494  0.5318445251961168 		Uiso   ? 		K 		0.79945
K 1.0  		0.5980252899759367 		0.16930022573363432  0.7482977878983205 		Uiso   ? 		K 		0.79945
K 1.0  		0.9296801490690403 		0.45735597212680346  0.5507032619985194 		Uiso   ? 		K 		0.79945
K 1.0  		0.786309518882563 		0.5105996663068015  0.7512532615763089 		Uiso   ? 		K 		0.79945
K 1.0  		0.10313538665241667 		0.7974285994700168  0.531000104145263 		Uiso   ? 		K 		0.79945
K 1.0  		0.9372237045127052 		0.83963097458043  0.7547716826215334 		Uiso   ? 		K 		0.79945
K 1.0  		0.10959323076591834 		0.14991657670036315  0.5744877882642362 		Uiso   ? 		K 		0.79860
K 1.0  		0.9546216840842393 		0.09372853076847582  0.7805265246725758 		Uiso   ? 		K 		0.79860
K 1.0  		0.25212401278487184 		0.4838551378938071  0.5906725250722684 		Uiso   ? 		K 		0.79860
K 1.0  		0.08184106640627782 		0.40337619000883307  0.7598382089266564 		Uiso   ? 		K 		0.79860
K 1.0  		0.4383226857905234 		0.8209834134851312  0.5739248408970004 		Uiso   ? 		K 		0.79860
K 1.0  		0.2775342242909241 		0.756943762881539  0.7767266299437334 		Uiso   ? 		K 		0.79860
K 1.0  		0.5890280006093539 		0.14918048876239082  0.6006648408407056 		Uiso   ? 		K 		0.79860
K 1.0  		0.42500819841057225 		0.07655314554912161  0.7533643142034435 		Uiso   ? 		K 		0.79860
K 1.0  		0.780416248164363 		0.48606340170772405  0.5884207356033248 		Uiso   ? 		K 		0.79860
K 1.0  		0.6151678141918029 		0.4284031798998921  0.772785998373082 		Uiso   ? 		K 		0.79860
K 1.0  		0.9244474143434 		0.8106781823535185  0.5915169461231222 		Uiso   ? 		K 		0.79860
K 1.0  		0.7719812600560441 		0.7535086858376682  0.7701119983787117 		Uiso   ? 		K 		0.79860
K 1.0  		0.2746741366023677 		0.26376484444008247  0.6130496829198954 		Uiso   ? 		K 		0.79934
K 1.0  		0.2627935157626008 		0.11335754244773777  0.835976840345312 		Uiso   ? 		K 		0.79934
K 1.0  		0.4199121839785583 		0.5810187457061537  0.5999611566316607 		Uiso   ? 		K 		0.79934
K 1.0  		0.4556057769790115 		0.45563843360486805  0.8137404193394939 		Uiso   ? 		K 		0.79934
K 1.0  		0.6061219757530172 		0.9262439886151733  0.6144570513379851 		Uiso   ? 		K 		0.79934
K 1.0  		0.6157163022332995 		0.7903130827362843  0.824295682475167 		Uiso   ? 		K 		0.79934
K 1.0  		0.7532455058417185 		0.24855236038865441  0.6019314724169864 		Uiso   ? 		K 		0.79934
K 1.0  		0.7982099747800296 		0.13151437825105508  0.8286585245712452 		Uiso   ? 		K 		0.79934
K 1.0  		0.944647193311494 		0.5999116694474433  0.6267011565753661 		Uiso   ? 		K 		0.79934
K 1.0  		0.9470386045091974 		0.45637452154284036  0.8477987350572659 		Uiso   ? 		K 		0.79934
K 1.0  		0.08237720211397609 		0.9110315045637453  0.5998204197898517 		Uiso   ? 		K 		0.79934
K 1.0  		0.13280067684199065 		0.7930120718421828  0.8206365245881337 		Uiso   ? 		K 		0.79934
K 1.0  		0.2472048757228735 		0.10427912454607911  0.683418103824383 		Uiso   ? 		K 		0.79902
K 1.0  		0.2887856852755607 		0.885268426734714  0.8684870508031852 		Uiso   ? 		K 		0.79902
K 1.0  		0.27059051406790774 		0.24879772303464523  0.7701119983787117 		Uiso   ? 		K 		0.79902
K 1.0  		0.4379027533648175 		0.3182353518500344  0.5775839987840337 		Uiso   ? 		K 		0.79902
K 1.0  		0.4244948362103999 		0.5748846795563843  0.756460524723241 		Uiso   ? 		K 		0.79902
K 1.0  		0.5806765737555732 		0.6462852095396997  0.6067165250384915 		Uiso   ? 		K 		0.79902
K 1.0  		0.6082621515760489 		0.923299636863284  0.7708156825877566 		Uiso   ? 		K 		0.79902
K 1.0  		0.7766169253429511 		0.9829227598390422  0.5849023145581004 		Uiso   ? 		K 		0.79902
K 1.0  		0.770853963091556 		0.2608204926881932  0.7802450509889577 		Uiso   ? 		K 		0.79902
K 1.0  		0.9117336001220543 		0.3020414172146433  0.6122052618690416 		Uiso   ? 		K 		0.79902
K 1.0  		0.9528903219181062 		0.5913239768377663  0.7954446299043271 		Uiso   ? 		K 		0.79902
K 1.0  		0.10629342460287783 		0.6494749239375798  0.5805394724620222 		Uiso   ? 		K 		0.79902
K 1.0  		0.26947355694319197 		0.3685346942781431  0.6984769458979433 		Uiso   ? 		K 		0.79896
K 1.0  		0.3017871099190389 		0.14034743350672294  0.8960714717977443 		Uiso   ? 		K 		0.79896
K 1.0  		0.41449495881612397 		0.6968299146137992  0.6804626301463945 		Uiso   ? 		K 		0.79896
K 1.0  		0.457367281717583 		0.467661203258416  0.8769312613117236 		Uiso   ? 		K 		0.79896
K 1.0  		0.5996348003211457 		0.033123957208754544  0.6918623143329216 		Uiso   ? 		K 		0.79896
K 1.0  		0.6470602501858745 		0.8173029737952695  0.8819977876168468 		Uiso   ? 		K 		0.79896
K 1.0  		0.7626521281512233 		0.36043772696044757  0.6943955774854831 		Uiso   ? 		K 		0.79896
K 1.0  		0.8126334005908836 		0.1501619393463539  0.8942418928542276 		Uiso   ? 		K 		0.79896
K 1.0  		0.9396415085789521 		0.7012464422416332  0.711002524818942 		Uiso   ? 		K 		0.79896
K 1.0  		0.9931124341893337 		0.4907252919815488  0.9237966296341124 		Uiso   ? 		K 		0.79896
K 1.0  		0.08136894886346319 		0.02674452841299441  0.6810255775136305 		Uiso   ? 		K 		0.79896
K 1.0  		0.10528436009829628 		0.7962017862400629  0.8849532612948353 		Uiso   ? 		K 		0.79896
K 1.0  		0.41829428163753585 		0.1999705564824811  0.6744109459486085 		Uiso   ? 		K 		0.80655
K 1.0  		0.4472654688940382 		0.9608401216998724  0.8711610507975558 		Uiso   ? 		K 		0.80655
K 1.0  		0.6051873662281925 		0.5363627441358327  0.6935511564346292 		Uiso   ? 		K 		0.80655
K 1.0  		0.6439765535561812 		0.3160270880361174  0.9012787349446764 		Uiso   ? 		K 		0.80655
K 1.0  		0.7622373739873476 		0.860241436843655  0.6903142090730228 		Uiso   ? 		K 		0.80655
K 1.0  		0.8121135619138228 		0.6531553636274414  0.8938196823288007 		Uiso   ? 		K 		0.80655
K 1.0  		0.9492549235129331 		0.2134655020119737  0.7005879985250779 		Uiso   ? 		K 		0.80655
K 1.0  		0.9952980266845401 		0.9944548042006086  0.9228114717414496 		Uiso   ? 		K 		0.80655
K 1.0  		0.08064541763692071 		0.5314554912160173  0.6858106301351355 		Uiso   ? 		K 		0.80655
K 1.0  		0.10966653351463959 		0.30645794484247724  0.8866421033965429 		Uiso   ? 		K 		0.80655
K 1.0  		0.266386240952481 		0.8680930415153597  0.6935511564346292 		Uiso   ? 		K 		0.80655
K 1.0  		0.3088534999009362 		0.6487388359996075  0.8956492612723174 		Uiso   ? 		K 		0.80655
K 1.0  		0.42479974991018277 		-0.04710962803022868  0.5205855778513988 		Uiso   ? 		K 		0.80668
K 1.0  		0.253025330653342 		-0.00392580233585239  0.7554753668305783 		Uiso   ? 		K 		0.80668
K 1.0  		0.6186374373118799 		0.3057218569045049  0.5332518936142066 		Uiso   ? 		K 		0.80668
K 1.0  		0.44144751341858546 		0.3346746491314163  0.7433719984350063 		Uiso   ? 		K 		0.80668
K 1.0  		0.7541250084834963 		0.6217489449406223  0.5255113673147129 		Uiso   ? 		K 		0.80668
K 1.0  		0.5934787698324324 		0.6565904406713123  0.7536457878870616 		Uiso   ? 		K 		0.80668
K 1.0  		0.9403208243732771 		-0.037295122190597704  0.5423997883317899 		Uiso   ? 		K 		0.80668
K 1.0  		0.7792542476694729 		0.010305231131612524  0.7467496826384218 		Uiso   ? 		K 		0.80668
K 1.0  		0.09172290633359163 		0.2939444498969477  0.5259335778401398 		Uiso   ? 		K 		0.80668
K 1.0  		0.922343321599784 		0.3287859456276377  0.76757873522615 		Uiso   ? 		K 		0.80668
K 1.0  		0.2659804627205095 		0.6288644616743548  0.5388813672865655 		Uiso   ? 		K 		0.80668
K 1.0  		0.11608605473672162 		0.6767101776425557  0.7398535773897819 		Uiso   ? 		K 		0.80668
K 1.0  		0.433824373742255 		0.452448719206988  0.6513301038919367 		Uiso   ? 		K 		0.80669
K 1.0  		0.4428339017836471 		0.21420158994994604  0.8390730508651093 		Uiso   ? 		K 		0.80669
K 1.0  		0.5884407027154481 		0.7812346648346257  0.6804626301463945 		Uiso   ? 		K 		0.80669
K 1.0  		0.6230763734871834 		0.5559917558150947  0.8553985245149506 		Uiso   ? 		K 		0.80669
K 1.0  		0.7733592564252922 		0.1158111689076455  0.6682185249090137 		Uiso   ? 		K 		0.80669
K 1.0  		0.7895616039113573 		0.890666404946511  0.8504727350516363 		Uiso   ? 		K 		0.80669
K 1.0  		0.9234082072663801 		0.44778682893316324  0.6796182090955406 		Uiso   ? 		K 		0.80669
K 1.0  		0.9713520672502344 		0.23088624987731868  0.8689092613286121 		Uiso   ? 		K 		0.80669
K 1.0  		0.10338490150110752 		0.7868780056924134  0.6589298933496214 		Uiso   ? 		K 		0.80669
K 1.0  		0.1084950701268558 		0.5459318873294731  0.8428729455939517 		Uiso   ? 		K 		0.80669
K 1.0  		0.25005515954156904 		0.9748257925213466  0.6001018934734698 		Uiso   ? 		K 		0.80669
K 1.0  		0.08775287396711934 		0.9056335263519482  0.7634973668136897 		Uiso   ? 		K 		0.80669
K 1.0  		0.41509569662479656 		0.07925213465502012  0.592361367173976 		Uiso   ? 		K 		0.80710
K 1.0  		0.46011348727010654 		0.9623122975758172  0.8157107351248195 		Uiso   ? 		K 		0.80710
K 1.0  		0.6106397818820184 		0.427421729315929  0.6112201039763787 		Uiso   ? 		K 		0.80710
K 1.0  		0.6070069319407825 		0.28118559230542745  0.8373842087634017 		Uiso   ? 		K 		0.80710
K 1.0  		0.7570324116792648 		0.7508096967317697  0.6024944197842222 		Uiso   ? 		K 		0.80710
K 1.0  		0.7905835077107268 		0.6219943075866131  0.8304881035147619 		Uiso   ? 		K 		0.80710
K 1.0  		0.9425185418843042 		0.09544606929041125  0.620790209219389 		Uiso   ? 		K 		0.80710
K 1.0  		0.9364724655186727 		0.9537246049661401  0.8555392613567594 		Uiso   ? 		K 		0.80710
K 1.0  		0.07507657138312446 		0.41024634409657473  0.5947538934847286 		Uiso   ? 		K 		0.80710
K 1.0  		0.1271758957671909 		0.29345372460496616  0.8155699982830106 		Uiso   ? 		K 		0.80710
K 1.0  		0.2729844414045147 		0.76356855432329  0.6226197881629058 		Uiso   ? 		K 		0.80710
K 1.0  		0.26140844229648547 		0.6192953184807145  0.8454062087465132 		Uiso   ? 		K 		0.80710
K 1.0  		0.10175344558632934 		0.2787319658455197  0.6554114723043969 		Uiso   ? 		K 		0.80699
K 1.0  		0.10739184488495206 		0.05201688095004417  0.8532874718878158 		Uiso   ? 		K 		0.80699
K 1.0  		0.24569480135191785 		0.603592109137305  0.6790552617283048 		Uiso   ? 		K 		0.80699
K 1.0  		0.2861598383359586 		0.3844832662675434  0.8673611560687134 		Uiso   ? 		K 		0.80699
K 1.0  		0.42749924057547306 		0.9480812641083521  0.6578039986151495 		Uiso   ? 		K 		0.80699
K 1.0  		0.4361495269630705 		0.7108155854352733  0.8249993666842119 		Uiso   ? 		K 		0.80699
K 1.0  		0.5846121299096217 		0.2767690646775935  0.6791959985701136 		Uiso   ? 		K 		0.80699
K 1.0  		0.6203278467887006 		0.05496123270193346  0.858072524509321 		Uiso   ? 		K 		0.80699
K 1.0  		0.7731329207111617 		0.6168416920208067  0.666388945965497 		Uiso   ? 		K 		0.80699
K 1.0  		0.7912337038635144 		0.38742761801943276  0.863842735023489 		Uiso   ? 		K 		0.80699
K 1.0  		0.9209166948243774 		0.9451369123564629  0.671877682796047 		Uiso   ? 		K 		0.80699
K 1.0  		0.9654037709829429 		0.7289724212385907  0.8676426297523313 		Uiso   ? 		K 		0.80699
