Generated by trjconv : System of Mixture  t= 1000.00000
_cell_length_a  47.061
_cell_length_b  47.061 
_cell_length_c  70.7116
_cell_angle_alpha 90.0
_cell_angle_beta  90.0
_cell_angle_gamma 120 
_space_group_name_H-M_alt    'P 1'
space_group_IT_number      1  
 
loop_ 
    _atom_site_label 
    _atom_site_occupancy 
    _atom_site_fract_x 
    _atom_site_fract_y 
    _atom_site_fract_z 
    _atom_site_adp_type 
    _atom_site_U_iso_or_equiv 
    _atom_site_type_symbol 
   _atom_site_charge
C 1.0  		0.23308240327381763 		0.12660712533123958  0.4258141521334548 		Uiso   ? 		C 		0.65367
C 1.0  		0.23346946635409144 		0.6288644616743548  0.4270869277459427 		Uiso   ? 		C 		0.65367
C 1.0  		0.7317398966632075 		0.1273432132692119  0.42722834725844133 		Uiso   ? 		C 		0.65367
C 1.0  		0.7304663841871657 		0.6254293846304839  0.42609699115845207 		Uiso   ? 		C 		0.65367
C 1.0  		0.1943179206134255 		0.055451957993915016  0.4576335424456525 		Uiso   ? 		C 		0.54468
C 1.0  		0.19852980679563081 		0.5577092943370302  0.4604619326956256 		Uiso   ? 		C 		0.54468
C 1.0  		0.6992603087592525 		0.05643340857787811  0.4601790936706283 		Uiso   ? 		C 		0.54468
C 1.0  		0.6936383848003236 		0.5530474040632055  0.45636076683316457 		Uiso   ? 		C 		0.54468
C 1.0  		0.37753259260664873 		0.052998331534007265  0.46074477172062295 		Uiso   ? 		C 		0.54544
C 1.0  		0.38546421737760045 		0.5584453822750024  0.4601790936706283 		Uiso   ? 		C 		0.54544
C 1.0  		0.8822800858258422 		0.05741485916184121  0.4579163814706498 		Uiso   ? 		C 		0.54544
C 1.0  		0.8801566126604821 		0.5555010305231132  0.45805780098314847 		Uiso   ? 		C 		0.54544
C 1.0  		0.3811640953239046 		0.2404553930709589  0.4593305765956364 		Uiso   ? 		C 		0.54775
C 1.0  		0.3810933087140871 		0.7422220041220925  0.4579163814706498 		Uiso   ? 		C 		0.54775
C 1.0  		0.8819793597820219 		0.24168220630091278  0.4569264448831592 		Uiso   ? 		C 		0.54775
C 1.0  		0.8801581872024402 		0.739523015016194  0.45862347903314304 		Uiso   ? 		C 		0.54775
C 1.0  		0.09313752175216677 		0.16120325841593877  0.4570678643956579 		Uiso   ? 		C 		0.54712
C 1.0  		0.09212696403958251 		0.6632152321130631  0.4570678643956579 		Uiso   ? 		C 		0.54712
C 1.0  		0.5922528648316479 		0.16243007164589265  0.46329032294559874 		Uiso   ? 		C 		0.54712
C 1.0  		0.5931699927697658 		0.6614976935911278  0.4589063180581404 		Uiso   ? 		C 		0.54712
C 1.0  		0.15259725836708413 		0.14795367553243696  0.4075710350211281 		Uiso   ? 		C 		-0.13819
C 1.0  		0.15421759551305503 		0.6480027480616352  0.40431838623365896 		Uiso   ? 		C 		-0.13819
C 1.0  		0.6558156534116907 		0.1501619393463539  0.4037527081836644 		Uiso   ? 		C 		-0.13819
C 1.0  		0.6549430495577236 		0.6494749239375798  0.4024799325711765 		Uiso   ? 		C 		-0.13819
C 1.0  		0.09253449512256845 		0.3457159682010011  0.45650218634566325 		Uiso   ? 		C 		0.54273
C 1.0  		0.0911887674787738 		0.8474825792521348  0.4591891570831377 		Uiso   ? 		C 		0.54273
C 1.0  		0.5888786683389178 		0.34522524290901957  0.4543808936581834 		Uiso   ? 		C 		0.54273
C 1.0  		0.5894036852778087 		0.8447835901462363  0.45862347903314304 		Uiso   ? 		C 		0.54273
C 1.0  		0.2761829450832986 		0.3449798802630288  0.4610276107456202 		Uiso   ? 		C 		0.54364
C 1.0  		0.27657000816357236 		0.8472372166061439  0.4604619326956256 		Uiso   ? 		C 		0.54364
C 1.0  		0.7748010926503677 		0.34988713318284426  0.45904773757063905 		Uiso   ? 		C 		0.54364
C 1.0  		0.7755298021387405 		0.8477279418981255  0.45749212293315383 		Uiso   ? 		C 		0.54364
C 1.0  		0.019817293529671723 		0.15310629109824322  0.4033284496461684 		Uiso   ? 		C 		-0.13442
C 1.0  		0.017146160260771925 		0.6509470998135245  0.40276277159617374 		Uiso   ? 		C 		-0.13442
C 1.0  		0.5158415709145471 		0.1494258514083816  0.40516690330865096 		Uiso   ? 		C 		-0.13442
C 1.0  		0.5175581949508551 		0.6445676710177642  0.4067225179461361 		Uiso   ? 		C 		-0.13442
C 1.0  		0.15710665685912617 		0.9512709785062322  0.39866160573371273 		Uiso   ? 		C 		0.12425
C 1.0  		0.1610768028845875 		0.4522033565609972  0.39710599109622746 		Uiso   ? 		C 		0.12425
C 1.0  		0.6608639143844248 		0.9520070664442046  0.3963988935337342 		Uiso   ? 		C 		0.12425
C 1.0  		0.6547396166512537 		0.44974973010108943  0.39569179597124093 		Uiso   ? 		C 		0.12425
C 1.0  		-0.010889183905914701 		0.12611640003925803  0.39710599109622746 		Uiso   ? 		C 		0.12399
C 1.0  		0.9858619760815648 		0.6219943075866131  0.3980959276837181 		Uiso   ? 		C 		0.12399
C 1.0  		0.48553600210103537 		0.1236627735793503  0.39823734719621673 		Uiso   ? 		C 		0.12399
C 1.0  		0.4870489335878618 		0.6205221317106684  0.39880302524621136 		Uiso   ? 		C 		0.12399
C 1.0  		0.31823278774495156 		0.28118559230542745  0.39866160573371273 		Uiso   ? 		C 		0.12427
C 1.0  		0.3180633930988375 		0.7814800274806164  0.3990858642712087 		Uiso   ? 		C 		0.12427
C 1.0  		0.8144783529250044 		0.2792226911375012  0.3972474106087262 		Uiso   ? 		C 		0.12427
C 1.0  		0.8152815987270892 		0.7797624889586809  0.3983787667087154 		Uiso   ? 		C 		0.12427
C 1.0  		0.1976834821512185 		0.9495534399842969  0.42736976677093996 		Uiso   ? 		C 		-0.07384
C 1.0  		0.200444425833567 		0.4514672686230249  0.42736976677093996 		Uiso   ? 		C 		-0.07384
C 1.0  		0.6995459233712471 		0.9537246049661401  0.42680408872094533 		Uiso   ? 		C 		-0.07384
C 1.0  		0.6965913829773231 		0.448032191579154  0.42454137652096685 		Uiso   ? 		C 		-0.07384
C 1.0  		0.18055274197420562 		-0.01840219844930808  0.40643967892113886 		Uiso   ? 		C 		-0.13482
C 1.0  		0.1863002028078862 		0.4814015114338993  0.4046012252586563 		Uiso   ? 		C 		-0.13482
C 1.0  		0.6900143648069692 		-0.018156835803317305  0.4003586398836966 		Uiso   ? 		C 		-0.13482
C 1.0  		0.6793912847484282 		0.4799293355579547  0.4036112886711657 		Uiso   ? 		C 		-0.13482
C 1.0  		0.2920002096580822 		0.2860928452252429  0.4048840642836536 		Uiso   ? 		C 		-0.13502
C 1.0  		0.2921988542886108 		0.7871233683384042  0.4058740008711442 		Uiso   ? 		C 		-0.13502
C 1.0  		0.7881471668018384 		0.28265776818137206  0.40431838623365896 		Uiso   ? 		C 		-0.13502
C 1.0  		0.7887379224315938 		0.7831975660025519  0.4048840642836536 		Uiso   ? 		C 		-0.13502
C 1.0  		-0.01086645940731043 		0.16611051133575427  0.426945508233444 		Uiso   ? 		C 		-0.07406
C 1.0  		0.9879702564811434 		0.6661595838649524  0.4270869277459427 		Uiso   ? 		C 		-0.07406
C 1.0  		0.48559159594507184 		0.16414761016782808  0.4282182838459319 		Uiso   ? 		C 		-0.07406
C 1.0  		0.4870980509550098 		0.665668858572971  0.4251070545709615 		Uiso   ? 		C 		-0.07406
C 1.0  		0.27580183919389 		0.24094611836294044  0.42736976677093996 		Uiso   ? 		C 		-0.07390
C 1.0  		0.27193677768161384 		0.7368240259102955  0.42553131310845743 		Uiso   ? 		C 		-0.07390
C 1.0  		0.7719399987147982 		0.23579350279713418  0.426945508233444 		Uiso   ? 		C 		-0.07390
C 1.0  		0.7694572838956437 		0.7348611247423693  0.42482421554596417 		Uiso   ? 		C 		-0.07390
C 1.0  		0.31179950231502385 		0.9512709785062322  0.39668173255873157 		Uiso   ? 		C 		0.12125
C 1.0  		0.31695477896101365 		0.452448719206988  0.4000758008586993 		Uiso   ? 		C 		0.12125
C 1.0  		0.8161044199438623 		0.9522524290901954  0.4000758008586993 		Uiso   ? 		C 		0.12125
C 1.0  		0.8174020041424884 		0.45293944449896956  0.3980959276837181 		Uiso   ? 		C 		0.12125
C 1.0  		-0.012231097195747276 		0.27897732849151047  0.39625747402123557 		Uiso   ? 		C 		0.12145
C 1.0  		0.9849955077275191 		0.7787810383747179  0.39894444475871005 		Uiso   ? 		C 		0.12145
C 1.0  		0.4826673117825754 		0.28069486701344587  0.39823734719621673 		Uiso   ? 		C 		0.12145
C 1.0  		0.48638847892925724 		0.781970752772598  0.3978130886587208 		Uiso   ? 		C 		0.12145
C 1.0  		0.15604475760853553 		0.12169987241142409  0.4003586398836966 		Uiso   ? 		C 		0.12162
C 1.0  		0.15954463696003998 		0.6212582196486407  0.3980959276837181 		Uiso   ? 		C 		0.12162
C 1.0  		0.6574886949607935 		0.12120914711944254  0.39894444475871005 		Uiso   ? 		C 		0.12162
C 1.0  		0.6584803592126237 		0.6229757581705762  0.39625747402123557 		Uiso   ? 		C 		0.12162
C 1.0  		0.20353454993122702 		-0.017911473157326527  0.4201573716335085 		Uiso   ? 		C 		-0.02699
C 1.0  		0.2077705078360166 		0.48311904995583477  0.4191674350460179 		Uiso   ? 		C 		-0.02699
C 1.0  		0.708608415458783 		-0.014967121405437237  0.4171875618710367 		Uiso   ? 		C 		-0.02699
C 1.0  		0.7033786024990808 		0.4811561487879086  0.4164804643085434 		Uiso   ? 		C 		-0.02699
C 1.0  		0.2754067417786578 		0.9520070664442046  0.4279354448209346 		Uiso   ? 		C 		-0.08033
C 1.0  		0.2731160647702662 		0.4514672686230249  0.4282182838459319 		Uiso   ? 		C 		-0.08033
C 1.0  		0.7714814837546611 		0.9522524290901954  0.42652124969594807 		Uiso   ? 		C 		-0.08033
C 1.0  		0.7740452113644165 		0.4512219059770341  0.4262384106709507 		Uiso   ? 		C 		-0.08033
C 1.0  		-0.01286722048875584 		0.23775640396506037  0.42524847408346017 		Uiso   ? 		C 		-0.08037
C 1.0  		0.9837700573626905 		0.73510648738836  0.426945508233444 		Uiso   ? 		C 		-0.08037
C 1.0  		0.48272560007457194 		0.23873785454902346  0.4266626692084467 		Uiso   ? 		C 		-0.08037
C 1.0  		0.48522876725529307 		0.7392776523702032  0.42524847408346017 		Uiso   ? 		C 		-0.08037
C 1.0  		0.2013366864361775 		0.16341152222985575  0.42765260579593734 		Uiso   ? 		C 		-0.08014
C 1.0  		0.19852759930866046 		0.6639513200510355  0.42779402530843597 		Uiso   ? 		C 		-0.08014
C 1.0  		0.6999941798255673 		0.16414761016782808  0.42751118628343865 		Uiso   ? 		C 		-0.08014
C 1.0  		0.6949439876927626 		0.6597801550691923  0.42736976677093996 		Uiso   ? 		C 		-0.08014
C 1.0  		0.155998302364314 		0.4207969378741781  0.4029041911086724 		Uiso   ? 		C 		-0.13470
C 1.0  		0.15573909730475122 		0.9213367356953578  0.4029041911086724 		Uiso   ? 		C 		-0.13470
C 1.0  		0.6554071484067254 		0.42006084993620574  0.39979296183370194 		Uiso   ? 		C 		-0.13470
C 1.0  		0.6548456427613845 		0.9208460104033763  0.40346986915866706 		Uiso   ? 		C 		-0.13470
C 1.0  		0.4549920372076402 		0.11654725684561783  0.40601542038364286 		Uiso   ? 		C 		-0.13470
C 1.0  		0.4567021847670597 		0.6163509667288253  0.40601542038364286 		Uiso   ? 		C 		-0.13470
C 1.0  		0.9584557917700085 		0.11924624595151635  0.4058740008711442 		Uiso   ? 		C 		-0.13470
C 1.0  		0.9572480179848311 		0.6183138678967515  0.4057325813586456 		Uiso   ? 		C 		-0.13470
C 1.0  		0.17453309080215168 		0.41834331141427034  0.4181774984585273 		Uiso   ? 		C 		-0.02735
C 1.0  		0.1727535851908501 		0.9183923839434684  0.4186017569960233 		Uiso   ? 		C 		-0.02735
C 1.0  		0.6710568848453984 		0.41736186083030724  0.41577336674605014 		Uiso   ? 		C 		-0.02735
C 1.0  		0.6749336010963932 		0.9193738345274316  0.4181774984585273 		Uiso   ? 		C 		-0.02735
C 1.0  		0.30080761969195075 		0.2335852389832172  0.4200159521210099 		Uiso   ? 		C 		-0.02770
C 1.0  		0.3002044470783297 		0.7321621356364708  0.4191674350460179 		Uiso   ? 		C 		-0.02770
C 1.0  		0.7995701975945256 		0.23113161252330947  0.41874317650852194 		Uiso   ? 		C 		-0.02770
C 1.0  		0.7979703128101214 		0.7306899597605262  0.41747040089603404 		Uiso   ? 		C 		-0.02770
C 1.0  		0.45342175902576304 		0.135930905878889  0.4201573716335085 		Uiso   ? 		C 		-0.02746
C 1.0  		0.4547245214862193 		0.6391696928059672  0.41747040089603404 		Uiso   ? 		C 		-0.02746
C 1.0  		0.9565262719343366 		0.1396113455687506  0.4200159521210099 		Uiso   ? 		C 		-0.02746
C 1.0  		0.9551060079768297 		0.6386789675139858  0.4197331130960125 		Uiso   ? 		C 		-0.02746
C 1.0  		0.28887039876113446 		0.4217783884581412  0.4057325813586456 		Uiso   ? 		C 		-0.13825
C 1.0  		0.28399335097833855 		0.9215820983413485  0.4026213520836751 		Uiso   ? 		C 		-0.13825
C 1.0  		0.7939266690429945 		0.4212876631661596  0.4058740008711442 		Uiso   ? 		C 		-0.13825
C 1.0  		0.7886903796064039 		0.9220728236333301  0.4058740008711442 		Uiso   ? 		C 		-0.13825
C 1.0  		0.31967686378203114 		-0.017666110511335754  0.4053083228211496 		Uiso   ? 		C 		-0.13813
C 1.0  		0.31841214892883724 		0.4821375993718717  0.40474264477115496 		Uiso   ? 		C 		-0.13813
C 1.0  		0.8215786508243803 		-0.017666110511335754  0.40728819599613075 		Uiso   ? 		C 		-0.13813
C 1.0  		0.8191047336280737 		0.48311904995583477  0.40318703013366974 		Uiso   ? 		C 		-0.13813
C 1.0  		0.4515599257249142 		0.2524781627245068  0.4037527081836644 		Uiso   ? 		C 		-0.13835
C 1.0  		0.45554404763505363 		0.7576798508195113  0.4050254837961523 		Uiso   ? 		C 		-0.13835
C 1.0  		0.9570652480740176 		0.25076062420257145  0.4017728350086832 		Uiso   ? 		C 		-0.13835
C 1.0  		0.9547228082594397 		0.7535086858376682  0.4058740008711442 		Uiso   ? 		C 		-0.13835
C 1.0  		0.26648439435282156 		0.41907939935224264  0.4201573716335085 		Uiso   ? 		C 		-0.02782
C 1.0  		0.26628213036127535 		0.9188831092354501  0.41874317650852194 		Uiso   ? 		C 		-0.02782
C 1.0  		0.7683861813951708 		0.41907939935224264  0.41789465943353 		Uiso   ? 		C 		-0.02782
C 1.0  		0.7669747150605117 		0.9198645598194132  0.4195916935835139 		Uiso   ? 		C 		-0.02782
C 1.0  		0.4509307658697838 		0.23039552458533713  0.41775323992103136 		Uiso   ? 		C 		-0.02819
C 1.0  		0.4534515282962008 		0.7343703994503877  0.4180360789460287 		Uiso   ? 		C 		-0.02819
C 1.0  		0.9543199841184398 		0.23039552458533713  0.41747040089603404 		Uiso   ? 		C 		-0.02819
C 1.0  		0.9522622496439443 		0.7294631465305722  0.4191674350460179 		Uiso   ? 		C 		-0.02819
C 1.0  		0.1665760147596019 		0.3820296398076357  0.4239756984709723 		Uiso   ? 		C 		0.65149
C 1.0  		0.16415903863131176 		0.882078712336834  0.42567273262095606 		Uiso   ? 		C 		0.65149
C 1.0  		0.6632224885617295 		0.3812935518696634  0.4225615033459857 		Uiso   ? 		C 		0.65149
C 1.0  		0.6651210545708942 		0.8823240749828247  0.42567273262095606 		Uiso   ? 		C 		0.65149
C 1.0  		0.4165928993759306 		0.1285700264991658  0.42637983018344944 		Uiso   ? 		C 		0.65184
C 1.0  		0.4181891647993171 		0.6298459122583179  0.4238342789584736 		Uiso   ? 		C 		0.65184
C 1.0  		0.9199997128702824 		0.13200510354303663  0.4258141521334548 		Uiso   ? 		C 		0.65184
C 1.0  		0.9176220825643129 		0.6278830110903917  0.42637983018344944 		Uiso   ? 		C 		0.65184
C 1.0  		0.23986105249070544 		0.3832564530375896  0.42595557164595343 		Uiso   ? 		C 		0.65479
C 1.0  		0.2400180301529539 		0.882078712336834  0.42595557164595343 		Uiso   ? 		C 		0.65479
C 1.0  		0.7398744997046732 		0.3820296398076357  0.4239756984709723 		Uiso   ? 		C 		0.65479
C 1.0  		0.7396810333359749 		0.8835508882127786  0.42553131310845743 		Uiso   ? 		C 		0.65479
C 1.0  		0.4145680665719009 		0.20144273235842575  0.4239756984709723 		Uiso   ? 		C 		0.65505
C 1.0  		0.41736705786151174 		0.7063990578074395  0.42468279603346554 		Uiso   ? 		C 		0.65505
C 1.0  		0.9184239321334959 		0.20365099617234272  0.42454137652096685 		Uiso   ? 		C 		0.65505
C 1.0  		0.9146246093120842 		0.7005103543036608  0.4249656350584628 		Uiso   ? 		C 		0.65505
C 1.0  		0.18093665597056327 		0.1158111689076455  0.40643967892113886 		Uiso   ? 		C 		-0.13858
C 1.0  		0.18724937215347962 		0.6192953184807145  0.40431838623365896 		Uiso   ? 		C 		-0.13858
C 1.0  		0.6809829725299633 		0.11507508096967319  0.40728819599613075 		Uiso   ? 		C 		-0.13858
C 1.0  		0.6838301072647427 		0.617577779958779  0.40276277159617374 		Uiso   ? 		C 		-0.13858
C 1.0  		0.02189221762282871 		0.17298066542349594  0.4184603374835246 		Uiso   ? 		C 		-0.02771
C 1.0  		0.019801613802900964 		0.6715575620767495  0.41874317650852194 		Uiso   ? 		C 		-0.02771
C 1.0  		0.5178026128716712 		0.17077240160957896  0.4191674350460179 		Uiso   ? 		C 		-0.02771
C 1.0  		0.5189563027047028 		0.6686132103248602  0.4191674350460179 		Uiso   ? 		C 		-0.02771
C 1.0  		0.27031924864259205 		0.26695455883796254  0.4188845960210206 		Uiso   ? 		C 		-0.02669
C 1.0  		0.2685638147538747 		0.7657768181372069  0.4188845960210206 		Uiso   ? 		C 		-0.02669
C 1.0  		0.7660981665097056 		0.2627833938561194  0.41945027407101526 		Uiso   ? 		C 		-0.02669
C 1.0  		0.7661412620359211 		0.7630778290313083  0.4188845960210206 		Uiso   ? 		C 		-0.02669
C 1.0  		0.32113262688286304 		0.2546864265384238  0.4054497423336482 		Uiso   ? 		C 		-0.13456
C 1.0  		0.32053825189208995 		0.7549808617136128  0.4054497423336482 		Uiso   ? 		C 		-0.13456
C 1.0  		0.8190211723735356 		0.25345961330846994  0.4036112886711657 		Uiso   ? 		C 		-0.13456
C 1.0  		0.8191540783131996 		0.7535086858376682  0.40516690330865096 		Uiso   ? 		C 		-0.13456
C 1.0  		0.2320133622762925 		0.018647561095298852  0.42652124969594807 		Uiso   ? 		C 		0.65158
C 1.0  		0.23391192828545723 		0.5196780842084601  0.4262384106709507 		Uiso   ? 		C 		0.65158
C 1.0  		0.733989685632354 		0.02134655020119737  0.42553131310845743 		Uiso   ? 		C 		0.65158
C 1.0  		0.7324050749476863 		0.5179605456865248  0.4238342789584736 		Uiso   ? 		C 		0.65158
C 1.0  		0.020233589910471902 		0.26401020708607326  0.4167633033335408 		Uiso   ? 		C 		-0.02778
C 1.0  		0.017113404574328694 		0.7630778290313083  0.4200159521210099 		Uiso   ? 		C 		-0.02778
C 1.0  		0.5151801423339631 		0.2632741191481009  0.4180360789460287 		Uiso   ? 		C 		-0.02778
C 1.0  		0.5177490482055488 		0.7647953675532437  0.4180360789460287 		Uiso   ? 		C 		-0.02778
C 1.0  		0.307670235790411 		0.20438708411031506  0.42553131310845743 		Uiso   ? 		C 		0.65194
C 1.0  		0.30777027238464305 		0.7039454313475317  0.42524847408346017 		Uiso   ? 		C 		0.65194
C 1.0  		0.8089257546929238 		0.20266954558837963  0.42454137652096685 		Uiso   ? 		C 		0.65194
C 1.0  		0.8065087785646335 		0.7027186181175779  0.42425853749596953 		Uiso   ? 		C 		0.65194
C 1.0  		0.2382612323563684 		0.029443517518892924  0.4935540986203113 		Uiso   ? 		C 		0.57010
C 1.0  		0.2439188827766003 		0.5294925900480911  0.4941197766703059 		Uiso   ? 		C 		0.57010
C 1.0  		0.7402111628438863 		0.026989891058985183  0.4917156449578287 		Uiso   ? 		C 		0.57010
C 1.0  		0.7355530817103084 		0.5221317106683679  0.4918570644703274 		Uiso   ? 		C 		0.57010
C 1.0  		0.40734841630661633 		0.12538031210128572  0.49341267910781256 		Uiso   ? 		C 		0.56676
C 1.0  		0.4138102051169572 		0.6342624398861518  0.4914328059328314 		Uiso   ? 		C 		0.56676
C 1.0  		0.9106325500420873 		0.1285700264991658  0.4927055815453193 		Uiso   ? 		C 		0.56676
C 1.0  		0.9082308480135335 		0.6256747472764747  0.49369551813280993 		Uiso   ? 		C 		0.56676
C 1.0  		0.31266259426717524 		0.201197369712435  0.4931298400828153 		Uiso   ? 		C 		0.56336
C 1.0  		0.3106618008606962 		0.6995289037196978  0.49256416203282066 		Uiso   ? 		C 		0.56336
C 1.0  		0.8094798912733523 		0.1982530179605457  0.4922813230078233 		Uiso   ? 		C 		0.56336
C 1.0  		0.8074550261442889 		0.6978113651977623  0.49256416203282066 		Uiso   ? 		C 		0.56336
C 1.0  		0.06206446592290681 		0.2048778094022966  0.4914328059328314 		Uiso   ? 		C 		0.56392
C 1.0  		0.06240106441205262 		0.7032093434095594  0.4904428693453408 		Uiso   ? 		C 		0.56392
C 1.0  		0.5648009395548378 		0.2078221611541859  0.4944026156953032 		Uiso   ? 		C 		0.56392
C 1.0  		0.5630848514884411 		0.702473255471587  0.49100854739533545 		Uiso   ? 		C 		0.56392
C 1.0  		0.16210260237187452 		0.37393267248994017  0.4911499669078341 		Uiso   ? 		C 		0.57325
C 1.0  		0.16382154755414197 		0.875453920895083  0.49199848398282603 		Uiso   ? 		C 		0.57325
C 1.0  		0.6621753117998181 		0.3783492001177741  0.49058428885783945 		Uiso   ? 		C 		0.57325
C 1.0  		0.6623387659389551 		0.8725095691431938  0.49369551813280993 		Uiso   ? 		C 		0.57325
C 1.0  		0.2313372602159509 		0.271861811757778  0.49426119618280456 		Uiso   ? 		C 		0.56885
C 1.0  		0.23460937529538944 		0.774364510746884  0.49199848398282603 		Uiso   ? 		C 		0.56885
C 1.0  		0.7323914077149414 		0.2782412405535381  0.4931298400828153 		Uiso   ? 		C 		0.56885
C 1.0  		0.7333895484436601 		0.7753459613308471  0.49213990349532466 		Uiso   ? 		C 		0.56885
C 1.0  		0.05794381871208558 		0.20046128177446265  0.42468279603346554 		Uiso   ? 		C 		0.65227
C 1.0  		0.056254123514232646 		0.7002649916576701  0.42454137652096685 		Uiso   ? 		C 		0.65227
C 1.0  		0.5545398279230851 		0.19579939150063796  0.4266626692084467 		Uiso   ? 		C 		0.65227
C 1.0  		0.5545676493495642 		0.6990381784277163  0.4249656350584628 		Uiso   ? 		C 		0.65227
C 1.0  		0.17514577531758824 		0.17052703896358817  0.4204402106585058 		Uiso   ? 		C 		-0.02852
C 1.0  		0.17348894946516752 		0.6708214741387771  0.4184603374835246 		Uiso   ? 		C 		-0.02852
C 1.0  		0.6748328502231936 		0.17077240160957896  0.41874317650852194 		Uiso   ? 		C 		-0.02852
C 1.0  		0.6728649261621467 		0.6695946609088234  0.41775323992103136 		Uiso   ? 		C 		-0.02852
C 1.0  		0.2428621941128735 		0.27578761409363045  0.42567273262095606 		Uiso   ? 		C 		0.65122
C 1.0  		0.24077159029294581 		0.774364510746884  0.42482421554596417 		Uiso   ? 		C 		0.65122
C 1.0  		0.7396794911190505 		0.27284326234174117  0.4253898935959588 		Uiso   ? 		C 		0.65122
C 1.0  		0.7392406652325904 		0.7738737854549024  0.4253898935959588 		Uiso   ? 		C 		0.65122
C 1.0  		0.29843664417192606 		-0.015948571989400334  0.41874317650852194 		Uiso   ? 		C 		-0.02833
C 1.0  		0.2987491709384875 		0.48360977524781634  0.41945027407101526 		Uiso   ? 		C 		-0.02833
C 1.0  		0.798491758354174 		-0.014967121405437237  0.41874317650852194 		Uiso   ? 		C 		-0.02833
C 1.0  		0.7997440562235023 		0.48434586318578865  0.4181774984585273 		Uiso   ? 		C 		-0.02833
C 1.0  		0.2048651984682297 		0.1351948179409167  0.42058163017100453 		Uiso   ? 		C 		-0.02720
C 1.0  		0.20701792161800397 		0.6384336048679949  0.41987453260851115 		Uiso   ? 		C 		-0.02720
C 1.0  		0.7034898225121873 		0.13544018058690746  0.42114730822099916 		Uiso   ? 		C 		-0.02720
C 1.0  		0.7043500093822888 		0.6352438904701149  0.41874317650852194 		Uiso   ? 		C 		-0.02720
C 1.0  		0.05835498583997731 		0.27480616350966736  0.42355143993347627 		Uiso   ? 		C 		0.65408
C 1.0  		0.053983931192441215 		0.7726469722249485  0.426945508233444 		Uiso   ? 		C 		0.65408
C 1.0  		0.5535052308129502 		0.2723525370497596  0.42439995700846816 		Uiso   ? 		C 		0.65408
C 1.0  		0.5530904766490744 		0.7721562469329669  0.42454137652096685 		Uiso   ? 		C 		0.65408
C 1.0  		0.16831602856456018 		0.2002159191284719  0.42567273262095606 		Uiso   ? 		C 		0.65560
C 1.0  		0.16431301319366667 		0.6987928157817254  0.42567273262095606 		Uiso   ? 		C 		0.65560
C 1.0  		0.6645287243991808 		0.19776229266856415  0.42595557164595343 		Uiso   ? 		C 		0.65560
C 1.0  		0.6652750291332492 		0.6990381784277163  0.4236928594459749 		Uiso   ? 		C 		0.65560
C 1.0  		0.23327801247941907 		0.3722151339680047  0.4945440352078018 		Uiso   ? 		C 		0.56822
C 1.0  		0.23308454611072077 		0.8737363823731475  0.4928470010578179 		Uiso   ? 		C 		0.56822
C 1.0  		0.7342423495649609 		0.37883992540975564  0.49086712788283676 		Uiso   ? 		C 		0.56822
C 1.0  		0.7299851770534578 		0.8752085582490923  0.4928470010578179 		Uiso   ? 		C 		0.56822
C 1.0  		0.06119837087086198 		0.27284326234174117  0.4904428693453408 		Uiso   ? 		C 		0.57141
C 1.0  		0.06447048595030047 		0.7753459613308471  0.4931298400828153 		Uiso   ? 		C 		0.57141
C 1.0  		0.5616960606434647 		0.277259789969575  0.49058428885783945 		Uiso   ? 		C 		0.57141
C 1.0  		0.560632717193793 		0.7689665325350868  0.4927055815453193 		Uiso   ? 		C 		0.57141
C 1.0  		0.0177564099712601 		0.28412994405731673  0.40346986915866706 		Uiso   ? 		C 		-0.13850
C 1.0  		0.015944035014526292 		0.7836882912945333  0.40559116184614685 		Uiso   ? 		C 		-0.13850
C 1.0  		0.5133163611891557 		0.28462066934929825  0.40445980574615764 		Uiso   ? 		C 		-0.13850
C 1.0  		0.5166454173366106 		0.7863872804004319  0.4041769667211603 		Uiso   ? 		C 		-0.13850
C 1.0  		0.16137838919139796 		0.20291490823437042  0.4918570644703274 		Uiso   ? 		C 		0.57175
C 1.0  		0.16388155637211915 		0.7034547060555502  0.49157422544533 		Uiso   ? 		C 		0.57175
C 1.0  		0.6641236604461769 		0.20757679850819513  0.49369551813280993 		Uiso   ? 		C 		0.57175
C 1.0  		0.6637482521046218 		0.7032093434095594  0.49058428885783945 		Uiso   ? 		C 		0.57175
C 1.0  		0.40801141942915825 		0.1955540288546472  0.4918570644703274 		Uiso   ? 		C 		0.56527
C 1.0  		0.41381814247681475 		0.7010010795956425  0.49058428885783945 		Uiso   ? 		C 		0.56527
C 1.0  		0.9113196248872135 		0.1975169300225734  0.4935540986203113 		Uiso   ? 		C 		0.56527
C 1.0  		0.9075290996886496 		0.696093826675827  0.49256416203282066 		Uiso   ? 		C 		0.56527
C 1.0  		0.3027267673628167 		0.02748061635096673  0.4931298400828153 		Uiso   ? 		C 		0.57007
C 1.0  		0.3133462280603401 		0.5302286779860634  0.4939783571578072 		Uiso   ? 		C 		0.57007
C 1.0  		0.8082890307799366 		0.025026989891058986  0.49199848398282603 		Uiso   ? 		C 		0.57007
C 1.0  		0.8051359760983612 		0.5236038865443126  0.4914328059328314 		Uiso   ? 		C 		0.57007
C 1.0  		0.24051308282846268 		0.1312690156050643  0.49242274252032203 		Uiso   ? 		C 		0.57134
C 1.0  		0.2447731124558366 		0.6310727254882718  0.49369551813280993 		Uiso   ? 		C 		0.57134
C 1.0  		0.7432648305601302 		0.1312690156050643  0.4931298400828153 		Uiso   ? 		C 		0.57134
C 1.0  		0.7363920372898083 		0.6266561978604377  0.4911499669078341 		Uiso   ? 		C 		0.57134
C 1.0  		0.3085514912832033 		0.020855824909215823  0.4258141521334548 		Uiso   ? 		C 		0.65514
C 1.0  		0.30959129898020205 		0.5201688095004418  0.426945508233444 		Uiso   ? 		C 		0.65514
C 1.0  		0.8081816251207921 		0.021837275493178918  0.4253898935959588 		Uiso   ? 		C 		0.65514
C 1.0  		0.8086409033688188 		0.5204141721464325  0.42567273262095606 		Uiso   ? 		C 		0.65514
C 1.0  		0.15348888602468233 		0.1501619393463539  0.2491811810226328 		Uiso   ? 		C 		-0.13514
C 1.0  		0.14849563495989407 		0.6450583963097458  0.251161054197614 		Uiso   ? 		C 		-0.13514
C 1.0  		0.652104712445792 		0.14868976347040927  0.2494640200476301 		Uiso   ? 		C 		-0.13514
C 1.0  		0.6549277754579872 		0.652419275689469  0.2474841468726489 		Uiso   ? 		C 		-0.13514
C 1.0  		0.23233105062079612 		0.12807930120718422  0.11596400024889833 		Uiso   ? 		C 		0.65942
C 1.0  		0.2367642245981788 		0.6320541760722348  0.11568116122390103 		Uiso   ? 		C 		0.65942
C 1.0  		0.7336611058370213 		0.12906075179114734  0.11497406366140774 		Uiso   ? 		C 		0.65942
C 1.0  		0.7333449597094419 		0.6303366375502993  0.11568116122390103 		Uiso   ? 		C 		0.65942
C 1.0  		0.23246252800252487 		0.13004220237511044  0.27138404448492187 		Uiso   ? 		C 		0.65956
C 1.0  		0.23420554490737655 		0.6303366375502993  0.27110120545992455 		Uiso   ? 		C 		0.65956
C 1.0  		0.7322306156987309 		0.128324663853175  0.2699698493599353 		Uiso   ? 		C 		0.65956
C 1.0  		0.7310557112589857 		0.6278830110903917  0.2702526883849326 		Uiso   ? 		C 		0.65956
C 1.0  		0.1959039598560288 		0.05692413386985966  0.1516017173985598 		Uiso   ? 		C 		0.54322
C 1.0  		0.19674887262639382 		0.5596721955049564  0.1453792588486189 		Uiso   ? 		C 		0.54322
C 1.0  		0.6960400868288774 		0.05594268328589656  0.14481358079862428 		Uiso   ? 		C 		0.54322
C 1.0  		0.6958290252144834 		0.5540288546471686  0.14976326373607723 		Uiso   ? 		C 		0.54322
C 1.0  		0.19426097954540905 		0.05618804593188734  0.30348627382211685 		Uiso   ? 		C 		0.54324
C 1.0  		0.19715625772535705 		0.5562371184610855  0.3040519518721115 		Uiso   ? 		C 		0.54324
C 1.0  		0.6953368776210245 		0.05496123270193346  0.3027791762596236 		Uiso   ? 		C 		0.54324
C 1.0  		0.6956012609424174 		0.5569732063990579  0.3053247274845994 		Uiso   ? 		C 		0.54324
C 1.0  		0.29194326859006575 		0.2868289331632153  0.3558114934466198 		Uiso   ? 		C 		-0.12901
C 1.0  		0.2865579065260507 		0.7822161154185888  0.3576499471091023 		Uiso   ? 		C 		-0.12901
C 1.0  		0.789373964390647 		0.2851113946412798  0.35651859100911304 		Uiso   ? 		C 		-0.12901
C 1.0  		0.7895485372985913 		0.787368730984395  0.35694284954660904 		Uiso   ? 		C 		-0.12901
C 1.0  		0.38082735085073616 		0.05618804593188734  0.14778339056109605 		Uiso   ? 		C 		0.54323
C 1.0  		0.38297127637766265 		0.5577092943370302  0.14877332714858665 		Uiso   ? 		C 		0.54323
C 1.0  		0.8829263539656786 		0.05913239768377662  0.14410648323613098 		Uiso   ? 		C 		0.54323
C 1.0  		0.8821676322477445 		0.5569732063990579  0.14919758568608263 		Uiso   ? 		C 		0.54323
C 1.0  		0.38136621333142817 		0.05471587005594269  0.30391053235961285 		Uiso   ? 		C 		0.54324
C 1.0  		0.38146624992566014 		0.5542742172931593  0.30292059577212227 		Uiso   ? 		C 		0.54324
C 1.0  		0.8834170730012021 		0.060113848267739724  0.3061732445595914 		Uiso   ? 		C 		0.54324
C 1.0  		0.8815389593536038 		0.5586907449209934  0.3015064006471357 		Uiso   ? 		C 		0.54324
C 1.0  		0.38239089291271317 		0.24290901953086663  0.14834906861109068 		Uiso   ? 		C 		0.54322
C 1.0  		0.382499727129793 		0.7441849052900187  0.1496218442235786 		Uiso   ? 		C 		0.54322
C 1.0  		0.8814974383693464 		0.24241829423888508  0.14750055153609873 		Uiso   ? 		C 		0.54322
C 1.0  		0.8830367627247164 		0.7444302679360094  0.148631907636088 		Uiso   ? 		C 		0.54322
C 1.0  		0.3817117554274445 		0.24070075571694965  0.30362769333461553 		Uiso   ? 		C 		0.54323
C 1.0  		0.38281730181530765 		0.7409951908921386  0.30560756650959675 		Uiso   ? 		C 		0.54323
C 1.0  		0.8807942291614934 		0.241436843654922  0.3044762104096075 		Uiso   ? 		C 		0.54323
C 1.0  		0.8815734032409941 		0.7432034547060556  0.302213498209629 		Uiso   ? 		C 		0.54323
C 1.0  		0.09189545006362179 		0.16169398370792032  0.14792481007359473 		Uiso   ? 		C 		0.54322
C 1.0  		0.09476665652098554 		0.6629698694670724  0.1473591320236001 		Uiso   ? 		C 		0.54322
C 1.0  		0.5893742893093716 		0.15752281872607715  0.1508946198360665 		Uiso   ? 		C 		0.54322
C 1.0  		0.5915117383594096 		0.6637059574050447  0.15018752227357324 		Uiso   ? 		C 		0.54322
C 1.0  		0.09143760037353055 		0.16120325841593877  0.30263775674712495 		Uiso   ? 		C 		0.54323
C 1.0  		0.08798224510617697 		0.660025517715183  0.30249633723462627 		Uiso   ? 		C 		0.54323
C 1.0  		0.5915167862783627 		0.160957895769948  0.3020720786971303 		Uiso   ? 		C 		0.54323
C 1.0  		0.5921973523215668 		0.6612523309451369  0.30362769333461553 		Uiso   ? 		C 		0.54323
C 1.0  		0.09218405109162163 		0.3484149573068996  0.14820764909859205 		Uiso   ? 		C 		0.54322
C 1.0  		0.08832778720219331 		0.84601040337619  0.14707629299860278 		Uiso   ? 		C 		0.54322
C 1.0  		0.5908808903033321 		0.3449798802630288  0.15131887837356248 		Uiso   ? 		C 		0.54322
C 1.0  		0.5909656527978278 		0.8474825792521348  0.15004610276107455 		Uiso   ? 		C 		0.54322
C 1.0  		0.09226506388222241 		0.3464520561389734  0.30391053235961285 		Uiso   ? 		C 		0.54323
C 1.0  		0.09167068889144936 		0.8467464913141625  0.3060318250470927 		Uiso   ? 		C 		0.54323
C 1.0  		0.5926882173411129 		0.34816959466090885  0.30475904943460475 		Uiso   ? 		C 		0.54323
C 1.0  		0.5900170840722131 		0.84601040337619  0.30362769333461553 		Uiso   ? 		C 		0.54323
C 1.0  		0.27716438315434544 		0.34694278143095497  0.14594493689861354 		Uiso   ? 		C 		0.54322
C 1.0  		0.2775097792663392 		0.8469918539601532  0.1453792588486189 		Uiso   ? 		C 		0.54322
C 1.0  		0.7766630396102057 		0.3459613308469919  0.15032894178607187 		Uiso   ? 		C 		0.54322
C 1.0  		0.7785375338967859 		0.848218667190107  0.14707629299860278 		Uiso   ? 		C 		0.54322
C 1.0  		0.2761676709835622 		0.34792423201491807  0.30391053235961285 		Uiso   ? 		C 		0.54323
C 1.0  		0.27499924302070555 		0.84282068897831  0.3020720786971303 		Uiso   ? 		C 		0.54323
C 1.0  		0.7777430857175489 		0.3493964078908627  0.30433479089710885 		Uiso   ? 		C 		0.54323
C 1.0  		0.7772625928628087 		0.848218667190107  0.3044762104096075 		Uiso   ? 		C 		0.54323
C 1.0  		0.12580552810586693 		0.23333987633722644  0.22556412243535715 		Uiso   ? 		C 		0.60502
C 1.0  		0.1220807415981674 		0.7328982235744431  0.22598838097285312 		Uiso   ? 		C 		0.60502
C 1.0  		0.6271837267672606 		0.23186770046128177  0.22655405902284775 		Uiso   ? 		C 		0.60502
C 1.0  		0.628902671949528 		0.7333889488664246  0.22584696146035446 		Uiso   ? 		C 		0.60502
C 1.0  		0.1312974032410025 		0.23284915104524487  0.38070132764638337 		Uiso   ? 		C 		0.60536
C 1.0  		0.12811147921399496 		0.7309353224065169  0.38070132764638337 		Uiso   ? 		C 		0.60536
C 1.0  		0.6326274584572276 		0.233830601629208  0.38140842520887663 		Uiso   ? 		C 		0.60536
C 1.0  		0.6267536985036485 		0.7346157620963786  0.381267005696378 		Uiso   ? 		C 		0.60536
C 1.0  		0.2058852357575959 		0.31062910982432035  0.22457418584786656 		Uiso   ? 		C 		0.60502
C 1.0  		0.20486588042216375 		0.8109235449995094  0.22641263951034907 		Uiso   ? 		C 		0.60502
C 1.0  		0.7038811869074129 		0.3125920109922466  0.22641263951034907 		Uiso   ? 		C 		0.60502
C 1.0  		0.7045441577049212 		0.8094513691235646  0.22528128341035983 		Uiso   ? 		C 		0.60502
C 1.0  		0.20596624854819665 		0.30866620865639416  0.3798528105713914 		Uiso   ? 		C 		0.60528
C 1.0  		0.20377056021508386 		0.8104328197075278  0.38098416667138063 		Uiso   ? 		C 		0.60528
C 1.0  		0.7064069972527829 		0.3138188242222004  0.380418488621386 		Uiso   ? 		C 		0.60528
C 1.0  		0.7049057205046753 		0.8148493473353617  0.38027706910888737 		Uiso   ? 		C 		0.60528
C 1.0  		0.12863742106594364 		0.312101285700265  0.22627121999785044 		Uiso   ? 		C 		0.60501
C 1.0  		0.13112531414692835 		0.815585435273334  0.22528128341035983 		Uiso   ? 		C 		0.60501
C 1.0  		0.6284383781075819 		0.31087447247031114  0.22655405902284775 		Uiso   ? 		C 		0.60501
C 1.0  		0.6190221792461942 		0.8015997644518599  0.22556412243535715 		Uiso   ? 		C 		0.60501
C 1.0  		0.12857168237507927 		0.3111198351163019  0.38027706910888737 		Uiso   ? 		C 		0.60530
C 1.0  		0.12294096079330241 		0.8060162920796939  0.37999423008389005 		Uiso   ? 		C 		0.60530
C 1.0  		0.6249552014137493 		0.30645794484247724  0.38013564959638874 		Uiso   ? 		C 		0.60530
C 1.0  		0.6258089118069622 		0.8109235449995094  0.37914571300889816 		Uiso   ? 		C 		0.60530
C 1.0  		0.2677395649791662 		0.09520070664442046  0.22598838097285312 		Uiso   ? 		C 		0.60501
C 1.0  		0.2678636732959825 		0.5935322406516832  0.22612980048535178 		Uiso   ? 		C 		0.60501
C 1.0  		0.7682349336058095 		0.09323780547649427  0.22457418584786656 		Uiso   ? 		C 		0.60501
C 1.0  		0.7673535321289946 		0.5908332515457847  0.2249984443853625 		Uiso   ? 		C 		0.60501
C 1.0  		0.017094867731687224 		0.2853567572872706  0.20279558092307343 		Uiso   ? 		C 		-0.13523
C 1.0  		0.01581487877875698 		0.7881048189223674  0.2019470638480815 		Uiso   ? 		C 		-0.13523
C 1.0  		0.5154236676667552 		0.28118559230542745  0.20336125897306806 		Uiso   ? 		C 		-0.13523
C 1.0  		0.5188031884053381 		0.7868780056924134  0.20307841994807074 		Uiso   ? 		C 		-0.13523
C 1.0  		0.26656323198148557 		0.09667288252036511  0.38098416667138063 		Uiso   ? 		C 		0.60541
C 1.0  		0.26925897294288115 		0.5873981745019139  0.38098416667138063 		Uiso   ? 		C 		0.60541
C 1.0  		0.7681691949149452 		0.09225635489253117  0.3811255861838793 		Uiso   ? 		C 		0.60541
C 1.0  		0.76589897026812 		0.5913239768377663  0.38013564959638874 		Uiso   ? 		C 		0.60541
C 1.0  		0.018384482245422107 		0.14599077436451074  0.25087821517261666 		Uiso   ? 		C 		-0.13061
C 1.0  		0.01540457191385558 		0.6487388359996075  0.251161054197614 		Uiso   ? 		C 		-0.13061
C 1.0  		0.5171734530165407 		0.14868976347040927  0.24988827858512605 		Uiso   ? 		C 		-0.13061
C 1.0  		0.5185419541678614 		0.6529100009814507  0.2484740834601395 		Uiso   ? 		C 		-0.13061
C 1.0  		0.34096912252522227 		0.168564137795662  0.22556412243535715 		Uiso   ? 		C 		0.60501
C 1.0  		0.34651289080942116 		0.6700853862008048  0.22683689804784507 		Uiso   ? 		C 		0.60501
C 1.0  		0.841302465570664 		0.17052703896358817  0.22414992731037056 		Uiso   ? 		C 		0.60501
C 1.0  		0.8455472210983015 		0.673275100598685  0.22612980048535178 		Uiso   ? 		C 		0.60501
C 1.0  		0.34276765194015507 		0.17003631367160663  0.380418488621386 		Uiso   ? 		C 		0.60537
C 1.0  		0.34701888394468106 		0.6681224850328786  0.38070132764638337 		Uiso   ? 		C 		0.60537
C 1.0  		0.8403779685676336 		0.1678280498576897  0.380418488621386 		Uiso   ? 		C 		0.60537
C 1.0  		0.8395382340590989 		0.6676317597408972  0.380842747158882 		Uiso   ? 		C 		0.60537
C 1.0  		0.3471539483623938 		0.09593679458239279  0.22598838097285312 		Uiso   ? 		C 		0.60502
C 1.0  		0.3458146971954877 		0.5930415153597016  0.22669547853534638 		Uiso   ? 		C 		0.60502
C 1.0  		0.844812408435041 		0.09127490430856806  0.22584696146035446 		Uiso   ? 		C 		0.60502
C 1.0  		0.8488863407586291 		0.5962312297575818  0.22627121999785044 		Uiso   ? 		C 		0.60502
C 1.0  		0.34344948387338375 		0.08980272843262342  0.38140842520887663 		Uiso   ? 		C 		0.60536
C 1.0  		0.34754748791955614 		0.5935322406516832  0.3805599081338847 		Uiso   ? 		C 		0.60536
C 1.0  		0.8498399574031968 		0.09495534399842968  0.380842747158882 		Uiso   ? 		C 		0.60536
C 1.0  		0.8462859940995467 		0.5923054274217294  0.380418488621386 		Uiso   ? 		C 		0.60536
C 1.0  		0.017355501349185357 		0.28290313082736285  0.3566600105216117 		Uiso   ? 		C 		-0.13390
C 1.0  		0.015267218675216965 		0.7878594562763765  0.35425587880913456 		Uiso   ? 		C 		-0.13390
C 1.0  		0.5168717530507412 		0.2853567572872706  0.3580742056465983 		Uiso   ? 		C 		-0.13390
C 1.0  		0.5165227375777298 		0.7861419177544412  0.35567007393412114 		Uiso   ? 		C 		-0.13390
C 1.0  		0.13661778990204265 		0.951516341152223  0.22683689804784507 		Uiso   ? 		C 		-0.24297
C 1.0  		0.1347849625837423 		0.4514672686230249  0.22641263951034907 		Uiso   ? 		C 		-0.24297
C 1.0  		0.6372687076329991 		0.9502895279222693  0.22443276633536788 		Uiso   ? 		C 		-0.24297
C 1.0  		0.6393593114529268 		0.4517126312690156  0.2249984443853625 		Uiso   ? 		C 		-0.24297
C 1.0  		0.13652797948859402 		0.9517617037982138  0.3816912642338739 		Uiso   ? 		C 		-0.24540
C 1.0  		0.141716125480016 		0.4534301697909511  0.3798528105713914 		Uiso   ? 		C 		-0.24540
C 1.0  		0.6378251653593869 		0.9522524290901954  0.38098416667138063 		Uiso   ? 		C 		-0.24540
C 1.0  		0.6350108999700397 		0.450240455393071  0.37829719593390615 		Uiso   ? 		C 		-0.24540
C 1.0  		-0.01300577496735178 		0.10403376190008834  0.22556412243535715 		Uiso   ? 		C 		-0.24297
C 1.0  		0.9857827974759337 		0.6065364608891942  0.22655405902284775 		Uiso   ? 		C 		-0.24297
C 1.0  		0.48488277052332074 		0.10280694867013446  0.2257055419478558 		Uiso   ? 		C 		-0.24297
C 1.0  		0.4868230035007656 		0.6060457355972128  0.2257055419478558 		Uiso   ? 		C 		-0.24297
C 1.0  		-0.013209467516833412 		0.10575130042202376  0.38070132764638337 		Uiso   ? 		C 		-0.24537
C 1.0  		0.9844990588191085 		0.6048189223672589  0.380418488621386 		Uiso   ? 		C 		-0.24537
C 1.0  		0.48488277052332074 		0.10280694867013446  0.3821155227713699 		Uiso   ? 		C 		-0.24537
C 1.0  		0.48822710077051207 		0.6016292079693788  0.381267005696378 		Uiso   ? 		C 		-0.24537
C 1.0  		0.3344218736253062 		0.3008146039846894  0.22655405902284775 		Uiso   ? 		C 		-0.24297
C 1.0  		0.33561723042661795 		0.8008636765138876  0.22655405902284775 		Uiso   ? 		C 		-0.24297
C 1.0  		0.835727857118947 		0.3030228677986064  0.2251398638978612 		Uiso   ? 		C 		-0.24297
C 1.0  		0.8358278937131789 		0.802581215035823  0.22683689804784507 		Uiso   ? 		C 		-0.24297
C 1.0  		0.33784578810516297 		0.2995877907547355  0.380842747158882 		Uiso   ? 		C 		-0.24541
C 1.0  		0.33511771376824667 		0.7981646874079891  0.38027706910888737 		Uiso   ? 		C 		-0.24541
C 1.0  		0.8340672815626314 		0.2988517028167632  0.38070132764638337 		Uiso   ? 		C 		-0.24541
C 1.0  		0.8349691354010129 		0.8008636765138876  0.3811255861838793 		Uiso   ? 		C 		-0.24541
C 1.0  		0.15498175513583096 		0.9512709785062322  0.24479717613517443 		Uiso   ? 		C 		0.11549
C 1.0  		0.15294523526804887 		0.45293944449896956  0.2452214346726704 		Uiso   ? 		C 		0.11549
C 1.0  		0.6563687514200724 		0.951516341152223  0.241685946860204 		Uiso   ? 		C 		0.11549
C 1.0  		0.6581241853087898 		0.4526940818529787  0.24380723954768382 		Uiso   ? 		C 		0.11549
C 1.0  		-0.01200209935869033 		0.12219059770340564  0.2429587224726919 		Uiso   ? 		C 		0.11549
C 1.0  		0.9841708523257764 		0.6237118461085485  0.24437291759767846 		Uiso   ? 		C 		0.11549
C 1.0  		0.4868350148575969 		0.12243596034939641  0.24310014198519056 		Uiso   ? 		C 		0.11549
C 1.0  		0.48767992762796186 		0.6251840219844932  0.24239304442269727 		Uiso   ? 		C 		0.11549
C 1.0  		0.31735875533304914 		0.28241240553538133  0.24451433711017714 		Uiso   ? 		C 		0.11549
C 1.0  		0.31721343240951944 		0.7814800274806164  0.24380723954768382 		Uiso   ? 		C 		0.11549
C 1.0  		0.8174467388607292 		0.28388458141132594  0.24267588344769458 		Uiso   ? 		C 		0.11549
C 1.0  		0.8172116055237508 		0.7831975660025519  0.2435244005226865 		Uiso   ? 		C 		0.11549
C 1.0  		0.15789967648042785 		0.9520070664442046  0.21014939557300358 		Uiso   ? 		C 		0.11542
C 1.0  		0.1550854110910806 		0.4499950927470802  0.20873520044801702 		Uiso   ? 		C 		0.11542
C 1.0  		0.6579219213172436 		0.9524977917361862  0.2071795858105318 		Uiso   ? 		C 		0.11542
C 1.0  		0.6582950085128392 		0.4504858180390618  0.2081695223980224 		Uiso   ? 		C 		0.11542
C 1.0  		0.15186997743664687 		0.14819903817842772  0.20237132238557748 		Uiso   ? 		C 		-0.13523
C 1.0  		0.15496247168918806 		0.6511924624595152  0.2039269370230627 		Uiso   ? 		C 		-0.13523
C 1.0  		0.6524639540995868 		0.14770831288644617  0.20180564433558285 		Uiso   ? 		C 		-0.13523
C 1.0  		0.6508728669380304 		0.6489841986455982  0.2003914492105963 		Uiso   ? 		C 		-0.13523
C 1.0  		0.15604420599747854 		0.9512709785062322  0.36415524468404054 		Uiso   ? 		C 		0.12004
C 1.0  		0.15873941098896266 		0.4522033565609972  0.36175111297156337 		Uiso   ? 		C 		0.12004
C 1.0  		0.654955856527478 		0.9542153302581216  0.3624582105340567 		Uiso   ? 		C 		0.12004
C 1.0  		0.6537100351350382 		0.450240455393071  0.36146827394656605 		Uiso   ? 		C 		0.12004
C 1.0  		-0.013995523700256876 		0.12415349887133184  0.2094422980105103 		Uiso   ? 		C 		0.11543
C 1.0  		0.9848411921881972 		0.62420257140053  0.20958371752300894 		Uiso   ? 		C 		0.11543
C 1.0  		0.4848568646157667 		0.12145450976543332  0.20901803947301434 		Uiso   ? 		C 		0.11543
C 1.0  		0.48652766635286554 		0.6254293846304839  0.2084523614230197 		Uiso   ? 		C 		0.11543
C 1.0  		-0.012286804698772733 		0.12587103739326727  0.3637309861465446 		Uiso   ? 		C 		0.12007
C 1.0  		0.9840898395351755 		0.6256747472764747  0.3642966641965392 		Uiso   ? 		C 		0.12007
C 1.0  		0.4869905639619099 		0.12317204828736875  0.3638724056590432 		Uiso   ? 		C 		0.12007
C 1.0  		0.48847942372615205 		0.6212582196486407  0.3635895666340459 		Uiso   ? 		C 		0.12007
C 1.0  		0.2921886281078274 		0.2873196584551968  0.2515853127351099 		Uiso   ? 		C 		-0.13060
C 1.0  		0.2913729653218769 		0.7858965551084504  0.250736795660118 		Uiso   ? 		C 		-0.13060
C 1.0  		0.7923992913943884 		0.2890371969771322  0.250312537122622 		Uiso   ? 		C 		-0.13060
C 1.0  		0.7917961187807674 		0.7876140936303858  0.251161054197614 		Uiso   ? 		C 		-0.13060
C 1.0  		0.31400705602094525 		0.27995877907547356  0.20972513703550763 		Uiso   ? 		C 		0.11543
C 1.0  		0.3148431711684624 		0.7809893021886348  0.21000797606050495 		Uiso   ? 		C 		0.11543
C 1.0  		0.8174708105833135 		0.28265776818137206  0.20802810288552376 		Uiso   ? 		C 		0.11543
C 1.0  		0.8171458668328864 		0.7822161154185888  0.209159458985513 		Uiso   ? 		C 		0.11543
C 1.0  		0.31704765712442307 		0.28094022965943666  0.36316530809654995 		Uiso   ? 		C 		0.12008
C 1.0  		0.31144980488807844 		0.7763274119148101  0.3650037617590325 		Uiso   ? 		C 		0.12008
C 1.0  		0.8178717192053884 		0.28388458141132594  0.3613268544340674 		Uiso   ? 		C 		0.12008
C 1.0  		0.8160264749032222 		0.782952203356561  0.3634481471215472 		Uiso   ? 		C 		0.12008
C 1.0  		0.1971358220476786 		0.9493080773383061  0.11865097098637281 		Uiso   ? 		C 		-0.08709
C 1.0  		0.20112356331883566 		0.4536755324369418  0.11751961488638356 		Uiso   ? 		C 		-0.08709
C 1.0  		0.7012370471270355 		0.9520070664442046  0.11497406366140774 		Uiso   ? 		C 		-0.08709
C 1.0  		0.7021337227035868 		0.4514672686230249  0.11596400024889833 		Uiso   ? 		C 		-0.08709
C 1.0  		0.19905703122149226 		0.9510256158602415  0.27265682009740977 		Uiso   ? 		C 		-0.08943
C 1.0  		0.19898986397269247 		0.45195799391500646  0.2718083030224178 		Uiso   ? 		C 		-0.08943
C 1.0  		0.6956794333010354 		0.951516341152223  0.27209114204741514 		Uiso   ? 		C 		-0.08943
C 1.0  		0.6995268995676159 		0.4522033565609972  0.2718083030224178 		Uiso   ? 		C 		-0.08943
C 1.0  		0.1575678662672235 		0.1523702031602709  0.3596298202840835 		Uiso   ? 		C 		-0.13390
C 1.0  		0.14897755637256965 		0.6443223083717735  0.3568014300341104 		Uiso   ? 		C 		-0.13390
C 1.0  		0.6513028952016425 		0.14623613701050153  0.3576499471091023 		Uiso   ? 		C 		-0.13390
C 1.0  		0.649089611622834 		0.6445676710177642  0.35383162027163856 		Uiso   ? 		C 		-0.13390
C 1.0  		-0.012296949545600677 		0.16537442339778194  0.11652967829889296 		Uiso   ? 		C 		-0.08709
C 1.0  		0.9874378704773401 		0.6629698694670724  0.1183681319613755 		Uiso   ? 		C 		-0.08709
C 1.0  		0.48566613225878413 		0.16684659927372658  0.11709535634888758 		Uiso   ? 		C 		-0.08709
C 1.0  		0.4864934497834533 		0.6661595838649524  0.11723677586138624 		Uiso   ? 		C 		-0.08709
C 1.0  		-0.012141400441287614 		0.16611051133575427  0.27081836643492724 		Uiso   ? 		C 		-0.08943
C 1.0  		0.9851750148954275 		0.665668858572971  0.27209114204741514 		Uiso   ? 		C 		-0.08943
C 1.0  		0.4879049161181124 		0.16537442339778194  0.2712426249724232 		Uiso   ? 		C 		-0.08943
C 1.0  		0.48581431229818467 		0.6639513200510355  0.2719497225349165 		Uiso   ? 		C 		-0.08943
C 1.0  		0.27342278032998507 		0.23873785454902346  0.11794387342387953 		Uiso   ? 		C 		-0.08709
C 1.0  		0.2752074642031169 		0.7412405535381293  0.11808529293637819 		Uiso   ? 		C 		-0.08709
C 1.0  		0.7753245673723345 		0.23873785454902346  0.11794387342387953 		Uiso   ? 		C 		-0.08709
C 1.0  		0.7734223820021519 		0.7385415644322308  0.11751961488638356 		Uiso   ? 		C 		-0.08709
C 1.0  		0.27235153184548955 		0.23702031602708803  0.27138404448492187 		Uiso   ? 		C 		-0.08943
C 1.0  		0.2756805879929446 		0.7387869270782217  0.2716668835099192 		Uiso   ? 		C 		-0.08943
C 1.0  		0.776706914065456 		0.24192756894690354  0.27251540058491114 		Uiso   ? 		C 		-0.08943
C 1.0  		0.7737575519333624 		0.7387869270782217  0.2715254639974205 		Uiso   ? 		C 		-0.08943
C 1.0  		0.19973616870676086 		0.9532338796741584  0.1821483320982696 		Uiso   ? 		C 		-0.08930
C 1.0  		0.19697884438543012 		0.4504858180390618  0.18087555648578169 		Uiso   ? 		C 		-0.08930
C 1.0  		0.6981723743009733 		0.9522524290901954  0.17776432721081123 		Uiso   ? 		C 		-0.08930
C 1.0  		0.6997634614625298 		0.4509765433310433  0.1798856198982911 		Uiso   ? 		C 		-0.08930
C 1.0  		0.19991578953365824 		0.9527431543821769  0.33572992267181057 		Uiso   ? 		C 		-0.08573
C 1.0  		0.1995944651442489 		0.4514672686230249  0.3330429519343361 		Uiso   ? 		C 		-0.08573
C 1.0  		0.6999709037159061 		0.9537246049661401  0.33558850315931193 		Uiso   ? 		C 		-0.08573
C 1.0  		0.7007120301881444 		0.452448719206988  0.33544708364681325 		Uiso   ? 		C 		-0.08573
C 1.0  		-0.013326531061816124 		0.1658651486897635  0.1804512979482857 		Uiso   ? 		C 		-0.08930
C 1.0  		0.984537544378439 		0.665668858572971  0.1796027808732938 		Uiso   ? 		C 		-0.08930
C 1.0  		0.485355034050158 		0.16537442339778194  0.18158265404827498 		Uiso   ? 		C 		-0.08930
C 1.0  		0.48727767178190706 		0.6651781332809893  0.17903710282329915 		Uiso   ? 		C 		-0.08930
C 1.0  		-0.01451166168234462 		0.16561978604377273  0.33544708364681325 		Uiso   ? 		C 		-0.08572
C 1.0  		0.9852648253088762 		0.6654234959269801  0.33473998608432 		Uiso   ? 		C 		-0.08572
C 1.0  		0.4889104259117435 		0.16611051133575427  0.33445714705932267 		Uiso   ? 		C 		-0.08572
C 1.0  		0.4866642729875028 		0.6639513200510355  0.33587134218430925 		Uiso   ? 		C 		-0.08572
C 1.0  		0.2722945907774731 		0.23775640396506037  0.18101697599828034 		Uiso   ? 		C 		-0.08930
C 1.0  		0.2734418041336163 		0.7402591029541663  0.18073413697328303 		Uiso   ? 		C 		-0.08930
C 1.0  		0.7751778158908692 		0.23971930513298656  0.1794613613607951 		Uiso   ? 		C 		-0.08930
C 1.0  		0.7729733299349086 		0.7397683776621848  0.18101697599828034 		Uiso   ? 		C 		-0.08930
C 1.0  		0.27537685884923097 		0.24094611836294044  0.33375004949682935 		Uiso   ? 		C 		-0.08570
C 1.0  		0.27098820895599907 		0.7353518500343508  0.33572992267181057 		Uiso   ? 		C 		-0.08570
C 1.0  		0.7712455871297933 		0.2365295907351065  0.3348814055968186 		Uiso   ? 		C 		-0.08570
C 1.0  		0.771052120761095 		0.7380508391402494  0.3372855373092958 		Uiso   ? 		C 		-0.08570
C 1.0  		0.3144961358644434 		0.9502895279222693  0.24338298101018788 		Uiso   ? 		C 		0.11818
C 1.0  		0.31460858944254094 		0.4507311806850525  0.2436658200351852 		Uiso   ? 		C 		0.11818
C 1.0  		0.819537132046567 		0.9527431543821769  0.24324156149768922 		Uiso   ? 		C 		0.11818
C 1.0  		0.8156122723504033 		0.4531848071449603  0.2435244005226865 		Uiso   ? 		C 		0.11818
C 1.0  		0.18201610145792804 		-0.01717538521935421  0.3568014300341104 		Uiso   ? 		C 		-0.12902
C 1.0  		0.18603077156754022 		0.4821375993718717  0.35595291295911846 		Uiso   ? 		C 		-0.12902
C 1.0  		0.6794972618496373 		-0.014967121405437237  0.3548215568591292 		Uiso   ? 		C 		-0.12902
C 1.0  		0.6786399320954066 		0.4814015114338993  0.35326594222164404 		Uiso   ? 		C 		-0.12902
C 1.0  		0.3170536466403219 		0.2524781627245068  0.20406835653556135 		Uiso   ? 		C 		-0.13070
C 1.0  		0.317620330547493 		0.7542447737756404  0.20449261507305733 		Uiso   ? 		C 		-0.13070
C 1.0  		0.8220705710998613 		0.25615860241436844  0.20208848336058016 		Uiso   ? 		C 		-0.13070
C 1.0  		0.8222034770395252 		0.7562076749435667  0.20251274189807614 		Uiso   ? 		C 		-0.13070
C 1.0  		-0.014502750400507719 		0.27995877907547356  0.24380723954768382 		Uiso   ? 		C 		0.11818
C 1.0  		0.987113932973926 		0.7834429286485426  0.24310014198519056 		Uiso   ? 		C 		0.11818
C 1.0  		0.4867703637477008 		0.28167631759740897  0.24380723954768382 		Uiso   ? 		C 		0.11818
C 1.0  		0.48750787085892144 		0.7812346648346257  0.2452214346726704 		Uiso   ? 		C 		0.11818
C 1.0  		0.15586513678163816 		0.12219059770340564  0.24338298101018788 		Uiso   ? 		C 		0.11818
C 1.0  		0.1556869445126762 		0.6207674943566591  0.24423149808517983 		Uiso   ? 		C 		0.11818
C 1.0  		0.6561239435133678 		0.12145450976543332  0.2435244005226865 		Uiso   ? 		C 		0.11818
C 1.0  		0.6604103660092853 		0.626410835214447  0.2406960102727134 		Uiso   ? 		C 		0.11818
C 1.0  		0.31322999245331407 		0.9520070664442046  0.21029081508550226 		Uiso   ? 		C 		0.11809
C 1.0  		0.31610481827169556 		0.452448719206988  0.20831094191052107 		Uiso   ? 		C 		0.11809
C 1.0  		0.8154757470497216 		0.9539699676121308  0.20887661996051568 		Uiso   ? 		C 		0.11809
C 1.0  		0.8168214746935163 		0.4522033565609972  0.20802810288552376 		Uiso   ? 		C 		0.11809
C 1.0  		0.31903939326504255 		-0.017666110511335754  0.2029370004355721 		Uiso   ? 		C 		-0.13523
C 1.0  		0.3210606390330882 		0.48360977524781634  0.20208848336058016 		Uiso   ? 		C 		-0.13523
C 1.0  		0.8220452981373195 		-0.015457846697418787  0.20138138579808687 		Uiso   ? 		C 		-0.13523
C 1.0  		0.8210083475561916 		0.4814015114338993  0.20081570774809224 		Uiso   ? 		C 		-0.13523
C 1.0  		0.3170131485869655 		0.9497988026302876  0.36316530809654995 		Uiso   ? 		C 		0.12080
C 1.0  		0.3132767073405473 		0.4514672686230249  0.3648623422465338 		Uiso   ? 		C 		0.12080
C 1.0  		0.8121240477376177 		0.951516341152223  0.36571085932152575 		Uiso   ? 		C 		0.12080
C 1.0  		0.8163066839354086 		0.452448719206988  0.36274104955905395 		Uiso   ? 		C 		0.12080
C 1.0  		0.20427062848451216 		-0.016439297281381885  0.26615152252247154 		Uiso   ? 		C 		-0.03262
C 1.0  		0.20498406387314846 		0.48434586318578865  0.2640302298349917 		Uiso   ? 		C 		-0.03262
C 1.0  		0.7041701935624469 		-0.01619393463539111  0.2627574542225038 		Uiso   ? 		C 		-0.03262
C 1.0  		0.70691872026093 		0.48483658847777017  0.26332313227249843 		Uiso   ? 		C 		-0.03262
C 1.0  		-0.013709730779206092 		0.28069486701344587  0.20831094191052107 		Uiso   ? 		C 		0.11809
C 1.0  		0.9859945410442618 		0.784179016586515  0.20788668337302507 		Uiso   ? 		C 		0.11809
C 1.0  		0.4860254875715678 		0.27848660319952895  0.20901803947301434 		Uiso   ? 		C 		0.11809
C 1.0  		0.4883666291710874 		0.782952203356561  0.21014939557300358 		Uiso   ? 		C 		0.11809
C 1.0  		-0.01194407070970549 		0.28167631759740897  0.3620339519965607 		Uiso   ? 		C 		0.12086
C 1.0  		0.9864829389338258 		0.7787810383747179  0.36401382517154185 		Uiso   ? 		C 		0.12086
C 1.0  		0.48556116140458805 		0.28265776818137206  0.36443808370903785 		Uiso   ? 		C 		0.12086
C 1.0  		0.48543111258079463 		0.7787810383747179  0.36401382517154185 		Uiso   ? 		C 		0.12086
C 1.0  		0.15528460733266605 		0.12145450976543332  0.2081695223980224 		Uiso   ? 		C 		0.11810
C 1.0  		0.15700355251493348 		0.6229757581705762  0.20901803947301434 		Uiso   ? 		C 		0.11810
C 1.0  		0.6550855643743043 		0.12022769653547945  0.20774526386052644 		Uiso   ? 		C 		0.11810
C 1.0  		0.655439758109146 		0.6219943075866131  0.20703816629803315 		Uiso   ? 		C 		0.11810
C 1.0  		0.16043483605970277 		0.12538031210128572  0.36599369834652307 		Uiso   ? 		C 		0.12087
C 1.0  		0.1563813560976813 		0.6200314064186869  0.3638724056590432 		Uiso   ? 		C 		0.12087
C 1.0  		0.6568840937892372 		0.12169987241142409  0.36472092273403517 		Uiso   ? 		C 		0.12087
C 1.0  		0.6545152611061156 		0.6192953184807145  0.3609025958965714 		Uiso   ? 		C 		0.12087
C 1.0  		0.3344373427179869 		0.9497988026302876  0.22584696146035446 		Uiso   ? 		C 		-0.24315
C 1.0  		0.33376557429763076 		0.4512219059770341  0.22627121999785044 		Uiso   ? 		C 		-0.24315
C 1.0  		0.8368145746961233 		0.9537246049661401  0.2251398638978612 		Uiso   ? 		C 		-0.24315
C 1.0  		0.8353738583770498 		0.4531848071449603  0.2257055419478558 		Uiso   ? 		C 		-0.24315
C 1.0  		0.32382805919232516 		-0.019138286387280403  0.35595291295911846 		Uiso   ? 		C 		-0.13393
C 1.0  		0.3158293975154507 		0.48164687407989015  0.3592055617465876 		Uiso   ? 		C 		-0.13393
C 1.0  		0.8172149652417567 		-0.01619393463539111  0.3589227227215902 		Uiso   ? 		C 		-0.13393
C 1.0  		0.8200445047308406 		0.482873687309844  0.3568014300341104 		Uiso   ? 		C 		-0.13393
C 1.0  		0.33340776120177157 		0.9502895279222693  0.38154984472137526 		Uiso   ? 		C 		-0.24404
C 1.0  		0.33440304481461935 		0.4512219059770341  0.38154984472137526 		Uiso   ? 		C 		-0.24404
C 1.0  		0.8346480060045479 		0.951516341152223  0.38140842520887663 		Uiso   ? 		C 		-0.24404
C 1.0  		0.8352752503407532 		0.4517126312690156  0.3805599081338847 		Uiso   ? 		C 		-0.24404
C 1.0  		-0.01592627710091979 		0.29836097752478163  0.22655405902284775 		Uiso   ? 		C 		-0.24315
C 1.0  		0.9861811253090373 		0.8028265776818138  0.22556412243535715 		Uiso   ? 		C 		-0.24315
C 1.0  		0.4865560393904016 		0.299097065462754  0.22641263951034907 		Uiso   ? 		C 		-0.24315
C 1.0  		0.48776019381456126 		0.8008636765138876  0.2279682541478343 		Uiso   ? 		C 		-0.24315
C 1.0  		-0.011969976617259487 		0.3003238786927078  0.3805599081338847 		Uiso   ? 		C 		-0.24407
C 1.0  		0.9850594122334138 		0.797183236824026  0.380842747158882 		Uiso   ? 		C 		-0.24407
C 1.0  		0.4839251445318465 		0.3010599666306802  0.38183268374637264 		Uiso   ? 		C 		-0.24407
C 1.0  		0.4857251025047147 		0.8006183138678968  0.38070132764638337 		Uiso   ? 		C 		-0.24407
C 1.0  		0.13751827983255605 		0.10207086073216214  0.2257055419478558 		Uiso   ? 		C 		-0.24315
C 1.0  		0.13792941463541414 		0.6031013838453235  0.22655405902284775 		Uiso   ? 		C 		-0.24315
C 1.0  		0.6374419166330753 		0.10108941014819904  0.22584696146035446 		Uiso   ? 		C 		-0.24315
C 1.0  		0.6381970189899916 		0.6040828344292866  0.2251398638978612 		Uiso   ? 		C 		-0.24315
C 1.0  		0.13899043693912635 		0.10501521248405143  0.3816912642338739 		Uiso   ? 		C 		-0.24411
C 1.0  		0.13836966907980958 		0.6001570320934342  0.3816912642338739 		Uiso   ? 		C 		-0.24411
C 1.0  		0.6397881061515479 		0.10280694867013446  0.38225694228386853 		Uiso   ? 		C 		-0.24411
C 1.0  		0.6375748225727393 		0.6011384826773973  0.3794285520338954 		Uiso   ? 		C 		-0.24411
C 1.0  		0.27465538912563625 		0.9534792423201492  0.11723677586138624 		Uiso   ? 		C 		-0.08678
C 1.0  		0.2733285549425957 		0.4514672686230249  0.11822671244887685 		Uiso   ? 		C 		-0.08678
C 1.0  		0.7723226468211313 		0.95053489056826  0.11469122463641045 		Uiso   ? 		C 		-0.08678
C 1.0  		0.7736771720877739 		0.4504858180390618  0.11808529293637819 		Uiso   ? 		C 		-0.08678
C 1.0  		0.2736410817091572 		0.9510256158602415  0.27378817619739904 		Uiso   ? 		C 		-0.08730
C 1.0  		0.27198787521775414 		0.4504858180390618  0.2718083030224178 		Uiso   ? 		C 		-0.08730
C 1.0  		0.7717837843404393 		0.9520070664442046  0.2701112688724339 		Uiso   ? 		C 		-0.08730
C 1.0  		0.7746586101588208 		0.452448719206988  0.27251540058491114 		Uiso   ? 		C 		-0.08730
C 1.0  		-0.014306508249893976 		0.23530277750515263  0.11525690268640505 		Uiso   ? 		C 		-0.08678
C 1.0  		0.9878249658826475 		0.7385415644322308  0.11624683927389565 		Uiso   ? 		C 		-0.08678
C 1.0  		0.48722956066177214 		0.24094611836294044  0.1183681319613755 		Uiso   ? 		C 		-0.08678
C 1.0  		0.48720691749712325 		0.7402591029541663  0.1173781953738849 		Uiso   ? 		C 		-0.08678
C 1.0  		-0.015057860902915499 		0.23677495338109728  0.2719497225349165 		Uiso   ? 		C 		-0.08730
C 1.0  		0.9870824108524737 		0.741731278830111  0.27251540058491114 		Uiso   ? 		C 		-0.08730
C 1.0  		0.48625692021357314 		0.24070075571694965  0.2732224981474044 		Uiso   ? 		C 		-0.08730
C 1.0  		0.48758143325065434 		0.7363333006183139  0.27209114204741514 		Uiso   ? 		C 		-0.08730
C 1.0  		0.20058533378315596 		0.1648836981058004  0.11539832219890371 		Uiso   ? 		C 		-0.08678
C 1.0  		0.20098767096316608 		0.6641966826970263  0.11865097098637281 		Uiso   ? 		C 		-0.08678
C 1.0  		0.7008200687923012 		0.16537442339778194  0.11525690268640505 		Uiso   ? 		C 		-0.08678
C 1.0  		0.6992201840078969 		0.6649327706349986  0.1173781953738849 		Uiso   ? 		C 		-0.08678
C 1.0  		0.20101911175066295 		0.16660123662773582  0.2712426249724232 		Uiso   ? 		C 		-0.08730
C 1.0  		0.19697442941148935 		0.6629698694670724  0.2730810786349057 		Uiso   ? 		C 		-0.08730
C 1.0  		0.700795997069717 		0.16660123662773582  0.2702526883849326 		Uiso   ? 		C 		-0.08730
C 1.0  		0.6976998834561581 		0.6644420453430171  0.2716668835099192 		Uiso   ? 		C 		-0.08730
C 1.0  		0.2723420689525957 		0.9522524290901954  0.18101697599828034 		Uiso   ? 		C 		-0.08723
C 1.0  		0.27406463349588084 		0.45293944449896956  0.17931994184829647 		Uiso   ? 		C 		-0.08723
C 1.0  		0.773974424754599 		0.9529885170281677  0.17889568331080047 		Uiso   ? 		C 		-0.08723
C 1.0  		0.7727702703304393 		0.4512219059770341  0.18002703941078974 		Uiso   ? 		C 		-0.08723
C 1.0  		0.18170560386928064 		0.1177740700755717  0.20152280531058556 		Uiso   ? 		C 		-0.13523
C 1.0  		0.18476522877638962 		0.6202767690646777  0.2026541614105748 		Uiso   ? 		C 		-0.13523
C 1.0  		0.6811056522888442 		0.11532044361566396  0.20109854677308955 		Uiso   ? 		C 		-0.13523
C 1.0  		0.6805770159889354 		0.616596329374816  0.19940151262310568 		Uiso   ? 		C 		-0.13523
C 1.0  		0.27303648053760077 		0.951516341152223  0.3353056641343146 		Uiso   ? 		C 		-0.08611
C 1.0  		0.27308319542483395 		0.4509765433310433  0.335164244621816 		Uiso   ? 		C 		-0.08611
C 1.0  		0.7750128038936623 		0.9542153302581216  0.334315727546824 		Uiso   ? 		C 		-0.08611
C 1.0  		0.773171178952514 		0.452448719206988  0.33558850315931193 		Uiso   ? 		C 		-0.08611
C 1.0  		-0.014207900213597385 		0.23677495338109728  0.18101697599828034 		Uiso   ? 		C 		-0.08723
C 1.0  		0.9861491162265955 		0.737314751202277  0.18257259063576556 		Uiso   ? 		C 		-0.08723
C 1.0  		0.4856675931417532 		0.23824712925704192  0.1801684589232884 		Uiso   ? 		C 		-0.08723
C 1.0  		0.48728145381083554 		0.7429580920600648  0.17931994184829647 		Uiso   ? 		C 		-0.08723
C 1.0  		-0.012107070212886387 		0.23800176661105116  0.3340328885218267 		Uiso   ? 		C 		-0.08607
C 1.0  		0.9840570838487324 		0.7378054764942586  0.33459856657182135 		Uiso   ? 		C 		-0.08607
C 1.0  		0.4879151746239293 		0.2384924919030327  0.3360127616968079 		Uiso   ? 		C 		-0.08607
C 1.0  		0.48601298925374686 		0.7382962017862401  0.33459856657182135 		Uiso   ? 		C 		-0.08607
C 1.0  		0.20020202040677698 		0.16709196191971737  0.1814412345357763 		Uiso   ? 		C 		-0.08723
C 1.0  		0.19981133796548553 		0.665668858572971  0.18030987843578705 		Uiso   ? 		C 		-0.08723
C 1.0  		0.7002066699978968 		0.16414761016782808  0.18002703941078974 		Uiso   ? 		C 		-0.08723
C 1.0  		0.7011742625271428 		0.6671410344489155  0.1798856198982911 		Uiso   ? 		C 		-0.08723
C 1.0  		0.2005283927151395 		0.16561978604377273  0.3362956007218052 		Uiso   ? 		C 		-0.08605
C 1.0  		0.1984049195497796 		0.6637059574050447  0.33643702023430383 		Uiso   ? 		C 		-0.08605
C 1.0  		0.6983840688603797 		0.1639022475218373  0.33572992267181057 		Uiso   ? 		C 		-0.08605
C 1.0  		0.6987623343178058 		0.6644420453430171  0.33332579095933346 		Uiso   ? 		C 		-0.08605
C 1.0  		0.14738481333509984 		0.4222691137501227  0.25257524932260056 		Uiso   ? 		C 		-0.13061
C 1.0  		0.15203695396170053 		0.9215820983413485  0.2513024737101126 		Uiso   ? 		C 		-0.13061
C 1.0  		0.6533239136517102 		0.4222691137501227  0.25045395663512066 		Uiso   ? 		C 		-0.13061
C 1.0  		0.650628708660226 		0.9213367356953578  0.24974685907262742 		Uiso   ? 		C 		-0.13061
C 1.0  		0.18743636204528943 		0.12243596034939641  0.3606197568715741 		Uiso   ? 		C 		-0.13391
C 1.0  		0.18290096067059244 		0.6178231426047699  0.3575085275966037 		Uiso   ? 		C 		-0.13391
C 1.0  		0.6837300706705107 		0.11801943272156247  0.35722568857160636 		Uiso   ? 		C 		-0.13391
C 1.0  		0.6798738067810823 		0.6156148787908529  0.3531245227091453 		Uiso   ? 		C 		-0.13391
C 1.0  		0.45663501751825997 		0.11728334478359015  0.25059537614761934 		Uiso   ? 		C 		-0.13061
C 1.0  		0.45650728984042593 		0.6197860437726961  0.24889834199763547 		Uiso   ? 		C 		-0.13061
C 1.0  		0.9575312947669781 		0.11654725684561783  0.25017111761012334 		Uiso   ? 		C 		-0.13061
C 1.0  		0.9542907508179134 		0.6217489449406223  0.2491811810226328 		Uiso   ? 		C 		-0.13061
C 1.0  		0.2986081816549432 		0.23088624987731868  0.2637473908099944 		Uiso   ? 		C 		-0.03262
C 1.0  		0.3028529371825807 		0.7336343115124154  0.2640302298349917 		Uiso   ? 		C 		-0.03262
C 1.0  		0.802326093357921 		0.23579350279713418  0.2644544883724877 		Uiso   ? 		C 		-0.03262
C 1.0  		0.7997688422250542 		0.7321621356364708  0.26332313227249843 		Uiso   ? 		C 		-0.03262
C 1.0  		0.15244291050272846 		0.42006084993620574  0.20321983946056943 		Uiso   ? 		C 		-0.13070
C 1.0  		0.15152216320359296 		0.9218274609873394  0.20222990287307882 		Uiso   ? 		C 		-0.13070
C 1.0  		0.6511244756147025 		0.41957012464422416  0.20123996628558824 		Uiso   ? 		C 		-0.13070
C 1.0  		0.6545192704530219 		0.9223181862793209  0.20123996628558824 		Uiso   ? 		C 		-0.13070
C 1.0  		0.15299936822911625 		0.42202375110413193  0.3548215568591292 		Uiso   ? 		C 		-0.12903
C 1.0  		0.14991205223840526 		0.9215820983413485  0.35538723490912383 		Uiso   ? 		C 		-0.12903
C 1.0  		0.6517948154771234 		0.42006084993620574  0.3558114934466198 		Uiso   ? 		C 		-0.12903
C 1.0  		0.6477853236293414 		0.923299636863284  0.35326594222164404 		Uiso   ? 		C 		-0.12903
C 1.0  		0.4547642729355743 		0.11949160859750713  0.20364409799806538 		Uiso   ? 		C 		-0.13070
C 1.0  		0.4559596297368861 		0.6195406811267054  0.20152280531058556 		Uiso   ? 		C 		-0.13070
C 1.0  		0.9560855305289513 		0.1187555206595348  0.20279558092307343 		Uiso   ? 		C 		-0.13070
C 1.0  		0.9548953519894698 		0.6212582196486407  0.20350267848556675 		Uiso   ? 		C 		-0.13070
C 1.0  		0.45715860589921553 		0.1187555206595348  0.35595291295911846 		Uiso   ? 		C 		-0.12901
C 1.0  		0.4571600344571509 		0.6168416920208067  0.3576499471091023 		Uiso   ? 		C 		-0.12901
C 1.0  		0.9562651513558488 		0.11826479536755324  0.3560943324716171 		Uiso   ? 		C 		-0.12901
C 1.0  		0.9549434954346383 		0.6188045931887329  0.35538723490912383 		Uiso   ? 		C 		-0.12901
C 1.0  		0.16995691504719856 		0.419815487290215  0.2657272639849756 		Uiso   ? 		C 		-0.03261
C 1.0  		0.17290913429516308 		0.9191284718814409  0.2641716493474904 		Uiso   ? 		C 		-0.03261
C 1.0  		0.6730438327100763 		0.42006084993620574  0.26388881032249306 		Uiso   ? 		C 		-0.03261
C 1.0  		0.6699565167193654 		0.9196191971734224  0.2641716493474904 		Uiso   ? 		C 		-0.03261
C 1.0  		0.45532769409984025 		0.14059279615271372  0.26233319568500785 		Uiso   ? 		C 		-0.03262
C 1.0  		0.4536532730017237 		0.6374521542840318  0.2641716493474904 		Uiso   ? 		C 		-0.03262
C 1.0  		0.9554878927952732 		0.13838453233879675  0.2637473908099944 		Uiso   ? 		C 		-0.03262
C 1.0  		0.9526547339451717 		0.6401511433899304  0.2641716493474904 		Uiso   ? 		C 		-0.03262
C 1.0  		0.1704629081824584 		0.4178525861222888  0.1883707906482105 		Uiso   ? 		C 		-0.03254
C 1.0  		0.17285219322714662 		0.9198645598194132  0.18851221016070913 		Uiso   ? 		C 		-0.03254
C 1.0  		0.6726998651560181 		0.41809794876827955  0.18808795162321318 		Uiso   ? 		C 		-0.03254
C 1.0  		0.6712971964442069 		0.9206006477573855  0.18525956137324004 		Uiso   ? 		C 		-0.03254
C 1.0  		0.32079625571169523 		-0.01840219844930808  0.2515853127351099 		Uiso   ? 		C 		-0.13514
C 1.0  		0.31819965875650774 		0.4821375993718717  0.24988827858512605 		Uiso   ? 		C 		-0.13514
C 1.0  		0.8232785722030166 		-0.017666110511335754  0.25087821517261666 		Uiso   ? 		C 		-0.13514
C 1.0  		0.8207148445932613 		0.48336441260182555  0.24988827858512605 		Uiso   ? 		C 		-0.13514
C 1.0  		0.17302158787326066 		0.41957012464422416  0.3405381860967649 		Uiso   ? 		C 		-0.03209
C 1.0  		0.17388177474336208 		0.9193738345274316  0.343790834884234 		Uiso   ? 		C 		-0.03209
C 1.0  		0.6739836038128432 		0.419815487290215  0.34265947878424474 		Uiso   ? 		C 		-0.03209
C 1.0  		0.6705370461683375 		0.9203552851113946  0.34138670317175684 		Uiso   ? 		C 		-0.03209
C 1.0  		0.45279308613162234 		0.13764844440082444  0.1886536296732078 		Uiso   ? 		C 		-0.03254
C 1.0  		0.45432361286414447 		0.6379428795760134  0.1863909174732293 		Uiso   ? 		C 		-0.03254
C 1.0  		0.9540004615889665 		0.13838453233879675  0.1879465321107145 		Uiso   ? 		C 		-0.03254
C 1.0  		0.9536514461159551 		0.6391696928059672  0.18780511259821586 		Uiso   ? 		C 		-0.03254
C 1.0  		0.4554985173038897 		0.13838453233879675  0.34138670317175684 		Uiso   ? 		C 		-0.03210
C 1.0  		0.45471572386337133 		0.6374521542840318  0.34393225439673264 		Uiso   ? 		C 		-0.03210
C 1.0  		0.9546708014513874 		0.1388752576307783  0.34223522024674874 		Uiso   ? 		C 		-0.03210
C 1.0  		0.952523256563443 		0.6381882422220042  0.3415281226842555 		Uiso   ? 		C 		-0.03210
C 1.0  		0.28752971903629293 		0.4207969378741781  0.24889834199763547 		Uiso   ? 		C 		-0.13514
C 1.0  		0.28686960535465544 		0.9201099224654039  0.2491811810226328 		Uiso   ? 		C 		-0.13514
C 1.0  		0.7917119569062505 		0.4215330258121504  0.25229241029760324 		Uiso   ? 		C 		-0.13514
C 1.0  		0.7921142940862607 		0.9208460104033763  0.24960543956012873 		Uiso   ? 		C 		-0.13514
C 1.0  		0.4568569059334161 		0.25542251447639613  0.250736795660118 		Uiso   ? 		C 		-0.13515
C 1.0  		0.4570796222865288 		0.7552262243596035  0.25186815176010724 		Uiso   ? 		C 		-0.13515
C 1.0  		0.9553653266953814 		0.25076062420257145  0.2484740834601395 		Uiso   ? 		C 		-0.13515
C 1.0  		0.9561380242979934 		0.7571891255275297  0.24988827858512605 		Uiso   ? 		C 		-0.13515
C 1.0  		0.29285077096737905 		0.4225144763961135  0.2002500296980976 		Uiso   ? 		C 		-0.13523
C 1.0  		0.2871807035632815 		0.9215820983413485  0.20336125897306806 		Uiso   ? 		C 		-0.13523
C 1.0  		0.7861302713576662 		0.4222691137501227  0.20463403458555599 		Uiso   ? 		C 		-0.13523
C 1.0  		0.7900310593312455 		0.9230542742172932  0.20138138579808687 		Uiso   ? 		C 		-0.13523
C 1.0  		0.2039771255215819 		-0.014476396113455688  0.18893646869820513 		Uiso   ? 		C 		-0.03254
C 1.0  		0.20300591363131829 		0.48336441260182555  0.1879465321107145 		Uiso   ? 		C 		-0.03254
C 1.0  		0.7047835923568513 		-0.014967121405437237  0.185683819910736 		Uiso   ? 		C 		-0.03254
C 1.0  		0.7059701515353152 		0.48336441260182555  0.1869565955232239 		Uiso   ? 		C 		-0.03254
C 1.0  		0.286712627692407 		0.4212876631661596  0.3580742056465983 		Uiso   ? 		C 		-0.13392
C 1.0  		0.29075136952460345 		0.9193738345274316  0.3552458153966252 		Uiso   ? 		C 		-0.13392
C 1.0  		0.7923494274232392 		0.4215330258121504  0.3543972983216332 		Uiso   ? 		C 		-0.13392
C 1.0  		0.787170079054665 		0.9215820983413485  0.3580742056465983 		Uiso   ? 		C 		-0.13392
C 1.0  		0.4554416898948622 		0.25174207478653454  0.2039269370230627 		Uiso   ? 		C 		-0.13523
C 1.0  		0.4574235898405872 		0.7571891255275297  0.20336125897306806 		Uiso   ? 		C 		-0.13523
C 1.0  		0.9550565496327146 		0.2556678771223869  0.2003914492105963 		Uiso   ? 		C 		-0.13523
C 1.0  		0.9554348150901405 		0.7562076749435667  0.20237132238557748 		Uiso   ? 		C 		-0.13523
C 1.0  		0.45586019376263276 		0.25640396506035923  0.3568014300341104 		Uiso   ? 		C 		-0.13391
C 1.0  		0.45483204080435274 		0.7549808617136128  0.35567007393412114 		Uiso   ? 		C 		-0.13391
C 1.0  		0.9571485820105777 		0.25517715183040535  0.3549629763716278 		Uiso   ? 		C 		-0.13391
C 1.0  		0.9552288013946995 		0.751545784669742  0.3587813032090916 		Uiso   ? 		C 		-0.13391
C 1.0  		0.26629597590307635 		0.4178525861222888  0.2634645517849971 		Uiso   ? 		C 		-0.03221
C 1.0  		0.2667640517739509 		0.9181470212974777  0.2645959078849863 		Uiso   ? 		C 		-0.03221
C 1.0  		0.7679042599824952 		0.419815487290215  0.264737327397485 		Uiso   ? 		C 		-0.03221
C 1.0  		0.7661816954392102 		0.9191284718814409  0.26205035666001053 		Uiso   ? 		C 		-0.03221
C 1.0  		0.3223834961942559 		0.25591323976837765  0.35552865442162246 		Uiso   ? 		C 		-0.12900
C 1.0  		0.31391586605848293 		0.7481107076258711  0.3596298202840835 		Uiso   ? 		C 		-0.12900
C 1.0  		0.8244014865185976 		0.2608204926881932  0.35298310319664666 		Uiso   ? 		C 		-0.12900
C 1.0  		0.8215178630773682 		0.7586613014034744  0.35595291295911846 		Uiso   ? 		C 		-0.12900
C 1.0  		0.20490809900150073 		-0.016439297281381885  0.34350799585923664 		Uiso   ? 		C 		-0.03209
C 1.0  		0.20765662569998367 		0.48459122583177944  0.3415281226842555 		Uiso   ? 		C 		-0.03209
C 1.0  		0.7040322397038299 		-0.013494945529492592  0.3428008982967434 		Uiso   ? 		C 		-0.03209
C 1.0  		0.7036656289851226 		0.4838551378938071  0.34138670317175684 		Uiso   ? 		C 		-0.03209
C 1.0  		0.4537019357329156 		0.23211306310727256  0.26360597129749574 		Uiso   ? 		C 		-0.03222
C 1.0  		0.4551995931200056 		0.73191677299048  0.26502016642248233 		Uiso   ? 		C 		-0.03222
C 1.0  		0.9532005921887757 		0.23113161252330947  0.2641716493474904 		Uiso   ? 		C 		-0.03222
C 1.0  		0.9543566031677667 		0.7353518500343508  0.2641716493474904 		Uiso   ? 		C 		-0.03222
C 1.0  		0.26873197583499775 		0.41932476199823343  0.18709801503572257 		Uiso   ? 		C 		-0.03214
C 1.0  		0.26682979046481525 		0.9191284718814409  0.1876636930857172 		Uiso   ? 		C 		-0.03214
C 1.0  		0.7655909398094548 		0.41858867406026107  0.1883707906482105 		Uiso   ? 		C 		-0.03214
C 1.0  		0.7686176953711316 		0.9206006477573855  0.1869565955232239 		Uiso   ? 		C 		-0.03214
C 1.0  		0.26593673424928166 		0.4188340367062519  0.342942317809242 		Uiso   ? 		C 		-0.03237
C 1.0  		0.26758994074068465 		0.9193738345274316  0.34308373732174074 		Uiso   ? 		C 		-0.03237
C 1.0  		0.7681167501548247 		0.419815487290215  0.3428008982967434 		Uiso   ? 		C 		-0.03237
C 1.0  		0.767007584405944 		0.9203552851113946  0.34265947878424474 		Uiso   ? 		C 		-0.03237
C 1.0  		0.45375007917808424 		0.22965943664736485  0.18950214674819973 		Uiso   ? 		C 		-0.03214
C 1.0  		0.4547352669530259 		0.7360879379723232  0.18879504918570644 		Uiso   ? 		C 		-0.03214
C 1.0  		0.9525631216717871 		0.23113161252330947  0.18780511259821586 		Uiso   ? 		C 		-0.03214
C 1.0  		0.9538811582319797 		0.7314260476984984  0.1899264052856957 		Uiso   ? 		C 		-0.03214
C 1.0  		0.2382924948348089 		0.2725978996957503  0.11568116122390103 		Uiso   ? 		C 		0.65790
C 1.0  		0.23824577994757573 		0.7731376975169301  0.11553974171140237 		Uiso   ? 		C 		0.65790
C 1.0  		0.7390091512566297 		0.2723525370497596  0.11709535634888758 		Uiso   ? 		C 		0.65790
C 1.0  		0.7399679461630275 		0.7736284228089116  0.11624683927389565 		Uiso   ? 		C 		0.65790
C 1.0  		0.45388155655981294 		0.231622337815291  0.34350799585923664 		Uiso   ? 		C 		-0.03239
C 1.0  		0.4541700116037901 		0.7324074982824615  0.3423766397592474 		Uiso   ? 		C 		-0.03239
C 1.0  		0.9550560626717248 		0.23186770046128177  0.34138670317175684 		Uiso   ? 		C 		-0.03239
C 1.0  		0.9525404785071381 		0.7304445971145354  0.3436494153717354 		Uiso   ? 		C 		-0.03239
C 1.0  		0.16397798924647897 		0.3844832662675434  0.11610541976139699 		Uiso   ? 		C 		0.65790
C 1.0  		0.162516058320692 		0.8813426243988616  0.11582258073639969 		Uiso   ? 		C 		0.65790
C 1.0  		0.6644404885276901 		0.3820296398076357  0.1151154831739064 		Uiso   ? 		C 		0.65790
C 1.0  		0.6662492441234062 		0.8833055255667878  0.1148326441489091 		Uiso   ? 		C 		0.65790
C 1.0  		0.1627599892805183 		0.38374717832957117  0.2701112688724339 		Uiso   ? 		C 		0.65813
C 1.0  		0.1639553460818301 		0.8837962508587693  0.2715254639974205 		Uiso   ? 		C 		0.65813
C 1.0  		0.6646289069774354 		0.3832564530375896  0.27039410789743124 		Uiso   ? 		C 		0.65813
C 1.0  		0.6641572117455432 		0.8837962508587693  0.2698284298474366 		Uiso   ? 		C 		0.65813
C 1.0  		0.41660169699877847 		0.1302875650211012  0.11667109781139162 		Uiso   ? 		C 		0.65790
C 1.0  		0.41779705380009025 		0.6303366375502993  0.1148326441489091 		Uiso   ? 		C 		0.65790
C 1.0  		0.9192965036624293 		0.13102365295907353  0.11469122463641045 		Uiso   ? 		C 		0.65790
C 1.0  		0.9187174027713927 		0.6283737363823731  0.11709535634888758 		Uiso   ? 		C 		0.65790
C 1.0  		0.4180891282050852 		0.1302875650211012  0.26940417130994065 		Uiso   ? 		C 		0.65813
C 1.0  		0.4163336943163679 		0.6291098243203456  0.27067694692242855 		Uiso   ? 		C 		0.65813
C 1.0  		0.9188627256949223 		0.1293061144371381  0.2702526883849326 		Uiso   ? 		C 		0.65813
C 1.0  		0.915284690668688 		0.6278830110903917  0.27138404448492187 		Uiso   ? 		C 		0.65813
C 1.0  		0.16247296279447646 		0.3810481892236726  0.18271401014826422 		Uiso   ? 		C 		0.65811
C 1.0  		0.1640451564952788 		0.8835508882127786  0.1818654930732723 		Uiso   ? 		C 		0.65811
C 1.0  		0.6650450896992466 		0.38153891451565414  0.1817240735607736 		Uiso   ? 		C 		0.65811
C 1.0  		0.6654978914703846 		0.8847777014427324  0.18073413697328303 		Uiso   ? 		C 		0.65811
C 1.0  		0.1657917927611482 		0.3830110903915988  0.33544708364681325 		Uiso   ? 		C 		0.65779
C 1.0  		0.16540111031985677 		0.8815879870448523  0.33714411779679715 		Uiso   ? 		C 		0.65779
C 1.0  		0.6682412399070374 		0.3832564530375896  0.3372855373092958 		Uiso   ? 		C 		0.65779
C 1.0  		0.6627595909526851 		0.8835508882127786  0.33544708364681325 		Uiso   ? 		C 		0.65779
C 1.0  		0.18167273452384844 		0.11728334478359015  0.24988827858512605 		Uiso   ? 		C 		-0.13514
C 1.0  		0.1839152680870715 		0.6202767690646777  0.24932260053513142 		Uiso   ? 		C 		-0.13514
C 1.0  		0.6821199597053231 		0.1177740700755717  0.24960543956012873 		Uiso   ? 		C 		-0.13514
C 1.0  		0.6869540423047806 		0.6229757581705762  0.24649421028515833 		Uiso   ? 		C 		-0.13514
C 1.0  		0.416224860099288 		0.12783393856119346  0.18129981502327766 		Uiso   ? 		C 		0.65811
C 1.0  		0.41874562252570496 		0.6318088134262441  0.18115839551077897 		Uiso   ? 		C 		0.65811
C 1.0  		0.9171956736617184 		0.12979683972911965  0.18129981502327766 		Uiso   ? 		C 		0.65811
C 1.0  		0.918399828085878 		0.6315634507802532  0.1817240735607736 		Uiso   ? 		C 		0.65811
C 1.0  		0.419453879652511 		0.13004220237511044  0.33572992267181057 		Uiso   ? 		C 		0.65779
C 1.0  		0.4187937659708736 		0.6293551869663363  0.33813405438428773 		Uiso   ? 		C 		0.65779
C 1.0  		0.9186261638000086 		0.13053292766709199  0.33671985925930115 		Uiso   ? 		C 		0.65779
C 1.0  		0.9158980894630924 		0.6291098243203456  0.3360127616968079 		Uiso   ? 		C 		0.65779
C 1.0  		0.2374009808361997 		0.3830110903915988  0.11553974171140237 		Uiso   ? 		C 		0.65942
C 1.0  		0.23860513526035937 		0.8847777014427324  0.11539832219890371 		Uiso   ? 		C 		0.65942
C 1.0  		0.7400869898770027 		0.3820296398076357  0.11525690268640505 		Uiso   ? 		C 		0.65942
C 1.0  		0.7389120854372575 		0.8815879870448523  0.1138427075614185 		Uiso   ? 		C 		0.65942
C 1.0  		0.23836482366155076 		0.38153891451565414  0.2698284298474366 		Uiso   ? 		C 		0.65957
C 1.0  		0.2396499908763113 		0.8813426243988616  0.27110120545992455 		Uiso   ? 		C 		0.65957
C 1.0  		0.739458316982862 		0.38374717832957117  0.2705355274099299 		Uiso   ? 		C 		0.65957
C 1.0  		0.7385528437834628 		0.8825694376288155  0.2679899761849541 		Uiso   ? 		C 		0.65957
C 1.0  		0.4193919229905751 		0.2068407105702228  0.11751961488638356 		Uiso   ? 		C 		0.65942
C 1.0  		0.4173341885160795 		0.7059083325154578  0.11624683927389565 		Uiso   ? 		C 		0.65942
C 1.0  		0.9172235274132311 		0.20634998527824125  0.11568116122390103 		Uiso   ? 		C 		0.65942
C 1.0  		0.9182874068328142 		0.7044361566395133  0.11497406366140774 		Uiso   ? 		C 		0.65942
C 1.0  		0.4173809034033128 		0.20536853469427815  0.27095978594742587 		Uiso   ? 		C 		0.65957
C 1.0  		0.4192049330987652 		0.7037000687015409  0.27138404448492187 		Uiso   ? 		C 		0.65957
C 1.0  		0.9165772592733945 		0.20463244675630582  0.2698284298474366 		Uiso   ? 		C 		0.65957
C 1.0  		0.9173235640074631 		0.7059083325154578  0.2702526883849326 		Uiso   ? 		C 		0.65957
C 1.0  		0.23955875190492718 		0.3835018156835803  0.18101697599828034 		Uiso   ? 		C 		0.65955
C 1.0  		0.23935648791338096 		0.8833055255667878  0.18073413697328303 		Uiso   ? 		C 		0.65955
C 1.0  		0.7384768789118151 		0.381784277161645  0.1818654930732723 		Uiso   ? 		C 		0.65955
C 1.0  		0.7405879350933094 		0.8828148002748062  0.18002703941078974 		Uiso   ? 		C 		0.65955
C 1.0  		0.2386759218701769 		0.3830110903915988  0.33572992267181057 		Uiso   ? 		C 		0.65944
C 1.0  		0.23871021977354454 		0.8815879870448523  0.3375683763342931 		Uiso   ? 		C 		0.65944
C 1.0  		0.7413049898429634 		0.3827657277456081  0.3362956007218052 		Uiso   ? 		C 		0.65944
C 1.0  		0.7396810333359749 		0.8835508882127786  0.33558850315931193 		Uiso   ? 		C 		0.65944
C 1.0  		0.41755172660736223 		0.20316027088036118  0.18285542966076287 		Uiso   ? 		C 		0.65955
C 1.0  		0.4182827572416943 		0.7073805083914025  0.18257259063576556 		Uiso   ? 		C 		0.65955
C 1.0  		0.9159967298244225 		0.2038963588183335  0.18115839551077897 		Uiso   ? 		C 		0.65955
C 1.0  		0.9173805050754795 		0.7051722445774856  0.1818654930732723 		Uiso   ? 		C 		0.65955
C 1.0  		0.4173063670896005 		0.20266954558837963  0.33671985925930115 		Uiso   ? 		C 		0.65945
C 1.0  		0.41701429268460555 		0.7027186181175779  0.33671985925930115 		Uiso   ? 		C 		0.65945
C 1.0  		0.9176725794804744 		0.20512317204828737  0.33473998608432 		Uiso   ? 		C 		0.65945
C 1.0  		0.9151241259704556 		0.7032093434095594  0.33671985925930115 		Uiso   ? 		C 		0.65945
C 1.0  		0.29995765900263266 		0.2335852389832172  0.18851221016070913 		Uiso   ? 		C 		-0.03254
C 1.0  		0.3004914735643716 		0.7348611247423693  0.1883707906482105 		Uiso   ? 		C 		-0.03254
C 1.0  		0.8028080147705966 		0.23505741485916185  0.18709801503572257 		Uiso   ? 		C 		-0.03254
C 1.0  		0.8008400907095496 		0.7338796741584062  0.1882293711357118 		Uiso   ? 		C 		-0.03254
C 1.0  		0.3019029398990306 		0.23407596427519875  0.34166954219675416 		Uiso   ? 		C 		-0.03212
C 1.0  		0.2968768194888102 		0.7284816959466092  0.3436494153717354 		Uiso   ? 		C 		-0.03212
C 1.0  		0.801197903805409 		0.23481205221317109  0.34138670317175684 		Uiso   ? 		C 		-0.03212
C 1.0  		0.8008160189869655 		0.73510648738836  0.3425180592717461 		Uiso   ? 		C 		-0.03212
C 1.0  		0.01890855758736741 		0.1712631269015605  0.18808795162321318 		Uiso   ? 		C 		-0.03254
C 1.0  		0.018379921287458745 		0.6725390126607126  0.1879465321107145 		Uiso   ? 		C 		-0.03254
C 1.0  		0.5172220834226989 		0.17003631367160663  0.18950214674819973 		Uiso   ? 		C 		-0.03254
C 1.0  		0.5192192574681603 		0.6725390126607126  0.18709801503572257 		Uiso   ? 		C 		-0.03254
C 1.0  		0.01855811355642062 		0.17396211600745903  0.34308373732174074 		Uiso   ? 		C 		-0.03211
C 1.0  		0.01679388204485538 		0.6710668367847679  0.3425180592717461 		Uiso   ? 		C 		-0.03211
C 1.0  		0.5209001550431653 		0.17101776425556972  0.3425180592717461 		Uiso   ? 		C 		-0.03211
C 1.0  		0.519536832153675 		0.6693492982628326  0.342942317809242 		Uiso   ? 		C 		-0.03211
C 1.0  		0.265258830329004 		0.2627833938561194  0.19006782479819437 		Uiso   ? 		C 		-0.03254
C 1.0  		0.26555608299582906 		0.7652860928452253  0.18921930772320242 		Uiso   ? 		C 		-0.03254
C 1.0  		0.7665648138226449 		0.26499165767003635  0.1876636930857172 		Uiso   ? 		C 		-0.03254
C 1.0  		0.767825909314821 		0.7660221807831976  0.18879504918570644 		Uiso   ? 		C 		-0.03254
C 1.0  		0.2685864579185236 		0.266463833545981  0.34265947878424474 		Uiso   ? 		C 		-0.03206
C 1.0  		0.26517924609633864 		0.7628324663853175  0.342942317809242 		Uiso   ? 		C 		-0.03206
C 1.0  		0.7654935653381493 		0.2632741191481009  0.34308373732174074 		Uiso   ? 		C 		-0.03206
C 1.0  		0.766583837626276 		0.7665129060751792  0.34350799585923664 		Uiso   ? 		C 		-0.03206
C 1.0  		0.3211085551602787 		0.25591323976837765  0.2510196346851153 		Uiso   ? 		C 		-0.13061
C 1.0  		0.32281870271969826 		0.7557169496515851  0.25059537614761934 		Uiso   ? 		C 		-0.13061
C 1.0  		0.822627028826249 		0.2581215035822947  0.24988827858512605 		Uiso   ? 		C 		-0.13061
C 1.0  		0.8211410261778778 		0.7562076749435667  0.24988827858512605 		Uiso   ? 		C 		-0.13061
C 1.0  		0.020632550688587936 		0.17003631367160663  0.26360597129749574 		Uiso   ? 		C 		-0.03261
C 1.0  		0.016842025490024004 		0.6686132103248602  0.26615152252247154 		Uiso   ? 		C 		-0.03261
C 1.0  		0.5203043514944569 		0.1732260280694867  0.2630402932475011 		Uiso   ? 		C 		-0.03261
C 1.0  		0.5192433291907446 		0.6713121994307588  0.2640302298349917 		Uiso   ? 		C 		-0.03261
C 1.0  		0.017528158738204486 		0.2632741191481009  0.2631817127599998 		Uiso   ? 		C 		-0.03221
C 1.0  		0.01968967951082673 		0.7682304445971145  0.264313068859989 		Uiso   ? 		C 		-0.03221
C 1.0  		0.5191123710950392 		0.266463833545981  0.2655858444724769 		Uiso   ? 		C 		-0.03221
C 1.0  		0.519987832064877 		0.7633231916772991  0.2637473908099944 		Uiso   ? 		C 		-0.03221
C 1.0  		0.26977158853905214 		0.26670919619197175  0.26487874690998364 		Uiso   ? 		C 		-0.03262
C 1.0  		0.26950358585664147 		0.7655314554912162  0.26502016642248233 		Uiso   ? 		C 		-0.03262
C 1.0  		0.7707424021014826 		0.26867209735989794  0.2653030054474796 		Uiso   ? 		C 		-0.03262
C 1.0  		0.767122700106968 		0.7650407301992345  0.2634645517849971 		Uiso   ? 		C 		-0.03262
C 1.0  		0.23356653217346357 		0.01962901167926195  0.11709535634888758 		Uiso   ? 		C 		0.65790
C 1.0  		0.23556370621892492 		0.5221317106683679  0.11525690268640505 		Uiso   ? 		C 		0.65790
C 1.0  		0.7348965873896887 		0.02061046226322505  0.11398412707391715 		Uiso   ? 		C 		0.65790
C 1.0  		0.7341466632946024 		0.5201688095004418  0.11568116122390103 		Uiso   ? 		C 		0.65790
C 1.0  		0.2324800095892316 		0.020855824909215823  0.2716668835099192 		Uiso   ? 		C 		0.65813
C 1.0  		0.23337306580476522 		0.5211502600844048  0.27039410789743124 		Uiso   ? 		C 		0.65813
C 1.0  		0.7324693850806152 		0.020855824909215823  0.26968701033493797 		Uiso   ? 		C 		0.65813
C 1.0  		0.7351850424336659 		0.5213956227303955  0.2698284298474366 		Uiso   ? 		C 		0.65813
C 1.0  		0.31001642530888374 		0.20610462263225046  0.11681251732389028 		Uiso   ? 		C 		0.65790
C 1.0  		0.31072986069751996 		0.706889783099421  0.11596400024889833 		Uiso   ? 		C 		0.65790
C 1.0  		0.8094252713512952 		0.20536853469427815  0.11568116122390103 		Uiso   ? 		C 		0.65790
C 1.0  		0.8092799484277653 		0.7044361566395133  0.11582258073639969 		Uiso   ? 		C 		0.65790
C 1.0  		0.30686841854626146 		0.2019334576504073  0.2702526883849326 		Uiso   ? 		C 		0.65813
C 1.0  		0.3095600041767279 		0.7037000687015409  0.2699698493599353 		Uiso   ? 		C 		0.65813
C 1.0  		0.8102840296634611 		0.20708607321621358  0.2705355274099299 		Uiso   ? 		C 		0.65813
C 1.0  		0.8077355761534422 		0.7051722445774856  0.269262751797442 		Uiso   ? 		C 		0.65813
C 1.0  		0.23351838872829497 		0.022082638139169695  0.18299684917326153 		Uiso   ? 		C 		0.65811
C 1.0  		0.2316402750806968 		0.5206595347924232  0.1814412345357763 		Uiso   ? 		C 		0.65811
C 1.0  		0.7341364371138192 		0.020365099617234275  0.18030987843578705 		Uiso   ? 		C 		0.65811
C 1.0  		0.7339670424677052 		0.5206595347924232  0.18158265404827498 		Uiso   ? 		C 		0.65811
C 1.0  		0.23302766969277153 		0.021101187555206596  0.33700269828429846 		Uiso   ? 		C 		0.65778
C 1.0  		0.2358572091818552 		0.5201688095004418  0.33558850315931193 		Uiso   ? 		C 		0.65778
C 1.0  		0.7339656139097697 		0.022573363431151242  0.33686127877179983 		Uiso   ? 		C 		0.65778
C 1.0  		0.7334851210550296 		0.5213956227303955  0.33587134218430925 		Uiso   ? 		C 		0.65778
C 1.0  		0.3080711444124858 		0.20561389734026891  0.1818654930732723 		Uiso   ? 		C 		0.65811
C 1.0  		0.30996971042165056 		0.7066444204534302  0.18158265404827498 		Uiso   ? 		C 		0.65811
C 1.0  		0.8085424413165448 		0.2048778094022966  0.1821483320982696 		Uiso   ? 		C 		0.65811
C 1.0  		0.808405916015863 		0.7056629698694671  0.18087555648578169 		Uiso   ? 		C 		0.65811
C 1.0  		0.30934608544646297 		0.20561389734026891  0.3360127616968079 		Uiso   ? 		C 		0.65779
C 1.0  		0.30730362507170383 		0.7017371675336147  0.3365784397468025 		Uiso   ? 		C 		0.65779
C 1.0  		0.8082730100761988 		0.20561389734026891  0.3362956007218052 		Uiso   ? 		C 		0.65779
C 1.0  		0.8065175761874814 		0.7044361566395133  0.3365784397468025 		Uiso   ? 		C 		0.65779
C 1.0  		0.05441249857308436 		0.1984983806065365  0.1818654930732723 		Uiso   ? 		C 		0.65811
C 1.0  		0.05414449589067377 		0.6973206399057809  0.1804512979482857 		Uiso   ? 		C 		0.65811
C 1.0  		0.5536569978883348 		0.19530866620865642  0.18228975161076824 		Uiso   ? 		C 		0.65811
C 1.0  		0.5543310874546503 		0.7002649916576701  0.18129981502327766 		Uiso   ? 		C 		0.65811
C 1.0  		0.05405325691928966 		0.19947983119049956  0.33587134218430925 		Uiso   ? 		C 		0.65779
C 1.0  		0.053614431032829646 		0.7005103543036608  0.33742695682179447 		Uiso   ? 		C 		0.65779
C 1.0  		0.5581456843757986 		0.20046128177446265  0.3372855373092958 		Uiso   ? 		C 		0.65779
C 1.0  		0.5566925510728595 		0.6990381784277163  0.3375683763342931 		Uiso   ? 		C 		0.65779
C 1.0  		0.18320123207845657 		-0.016930022573363433  0.20321983946056943 		Uiso   ? 		C 		-0.13070
C 1.0  		0.183627640981051 		0.4811561487879086  0.20321983946056943 		Uiso   ? 		C 		-0.13070
C 1.0  		0.6831007971563914 		-0.01668465992737266  0.19996719067310031 		Uiso   ? 		C 		-0.13070
C 1.0  		0.6819170950937983 		0.4811561487879086  0.2003914492105963 		Uiso   ? 		C 		-0.13070
C 1.0  		0.23847211566170626 		0.2721071744037688  0.18200691258577092 		Uiso   ? 		C 		0.65811
C 1.0  		0.2386795579150827 		0.7748552360388655  0.1814412345357763 		Uiso   ? 		C 		0.65811
C 1.0  		0.7379795697404142 		0.27284326234174117  0.1824311711232669 		Uiso   ? 		C 		0.65811
C 1.0  		0.7405572732348477 		0.7760820492688193  0.1818654930732723 		Uiso   ? 		C 		0.65811
C 1.0  		0.24079423345759465 		0.2750515261556581  0.3362956007218052 		Uiso   ? 		C 		0.65777
C 1.0  		0.23668381242755673 		0.7704387084110316  0.33686127877179983 		Uiso   ? 		C 		0.65777
C 1.0  		0.7395984783284497 		0.27480616350966736  0.33643702023430383 		Uiso   ? 		C 		0.65777
C 1.0  		0.7378759137851645 		0.7741191481008931  0.33643702023430383 		Uiso   ? 		C 		0.65777
C 1.0  		0.057060988677335264 		0.1999705564824811  0.1148326441489091 		Uiso   ? 		C 		0.65790
C 1.0  		0.054880574443958885 		0.6987928157817254  0.11568116122390103 		Uiso   ? 		C 		0.65790
C 1.0  		0.5536745931340306 		0.19874374325252728  0.11525690268640505 		Uiso   ? 		C 		0.65790
C 1.0  		0.5558097210381092 		0.6985474531357346  0.11667109781139162 		Uiso   ? 		C 		0.65790
C 1.0  		0.056627210709828325 		0.1982530179605457  0.2698284298474366 		Uiso   ? 		C 		0.65813
C 1.0  		0.05394080334119211 		0.6990381784277163  0.27138404448492187 		Uiso   ? 		C 		0.65813
C 1.0  		0.5558981028936225 		0.2002159191284719  0.2702526883849326 		Uiso   ? 		C 		0.65813
C 1.0  		0.5551722505211206 		0.6985474531357346  0.27138404448492187 		Uiso   ? 		C 		0.65813
C 1.0  		0.17433748159655021 		0.17273530277750515  0.2628988737350025 		Uiso   ? 		C 		-0.03221
C 1.0  		0.1692544201183133 		0.6678771223868879  0.2653030054474796 		Uiso   ? 		C 		-0.03221
C 1.0  		0.6727977589133469 		0.17052703896358817  0.26388881032249306 		Uiso   ? 		C 		-0.03221
C 1.0  		0.6731848219936207 		0.6727843753067033  0.2628988737350025 		Uiso   ? 		C 		-0.03221
C 1.0  		0.24048313524896858 		0.2735793502797134  0.27110120545992455 		Uiso   ? 		C 		0.65813
C 1.0  		0.23844947249705742 		0.7714201589949947  0.2699698493599353 		Uiso   ? 		C 		0.65813
C 1.0  		0.7403827003269035 		0.27382471292570426  0.27081836643492724 		Uiso   ? 		C 		0.65813
C 1.0  		0.7389054953013799 		0.7736284228089116  0.2705355274099299 		Uiso   ? 		C 		0.65813
C 1.0  		0.018533668531835662 		0.26401020708607326  0.1883707906482105 		Uiso   ? 		C 		-0.03214
C 1.0  		0.018552692335466858 		0.7655314554912162  0.1899264052856957 		Uiso   ? 		C 		-0.03214
C 1.0  		0.5173948544707072 		0.26302875650211016  0.1883707906482105 		Uiso   ? 		C 		-0.03214
C 1.0  		0.5200230225562685 		0.7701933457650407  0.1869565955232239 		Uiso   ? 		C 		-0.03214
C 1.0  		0.020413210737369236 		0.2635194817940917  0.34223522024674874 		Uiso   ? 		C 		-0.03237
C 1.0  		0.01722081023347327 		0.7662675434291885  0.34110386414675953 		Uiso   ? 		C 		-0.03237
C 1.0  		0.5193401353671051 		0.2635194817940917  0.3436494153717354 		Uiso   ? 		C 		-0.03237
C 1.0  		0.5183207800316729 		0.7638139169692807  0.34308373732174074 		Uiso   ? 		C 		-0.03237
C 1.0  		0.17220378225040703 		0.17101776425556972  0.1886536296732078 		Uiso   ? 		C 		-0.03214
C 1.0  		0.1739227274326745 		0.6725390126607126  0.18879504918570644 		Uiso   ? 		C 		-0.03214
C 1.0  		0.6737046606706815 		0.16979095102561587  0.18780511259821586 		Uiso   ? 		C 		-0.03214
C 1.0  		0.6733075017525015 		0.6730297379526942  0.18752227357321855 		Uiso   ? 		C 		-0.03214
C 1.0  		0.17356853369783287 		0.17077240160957896  0.34350799585923664 		Uiso   ? 		C 		-0.03238
C 1.0  		0.16955672070409156 		0.6676317597408972  0.34350799585923664 		Uiso   ? 		C 		-0.03238
C 1.0  		0.6723399092232556 		0.17003631367160663  0.34393225439673264 		Uiso   ? 		C 		-0.03238
C 1.0  		0.6714344360238564 		0.6688585729708509  0.3401139275592689 		Uiso   ? 		C 		-0.03238
C 1.0  		0.2983468337584774 		-0.01570320934340956  0.18893646869820513 		Uiso   ? 		C 		-0.03214
C 1.0  		0.3016758899059324 		0.48606340170772405  0.1873808540607199 		Uiso   ? 		C 		-0.03214
C 1.0  		0.8006823987683337 		-0.01398567082147414  0.18709801503572257 		Uiso   ? 		C 		-0.03214
C 1.0  		0.8007736377397177 		0.4838551378938071  0.18723943454822123 		Uiso   ? 		C 		-0.03214
C 1.0  		0.3017466765157499 		-0.01570320934340956  0.342942317809242 		Uiso   ? 		C 		-0.03240
C 1.0  		0.29795615131718595 		0.482873687309844  0.34407367390923127 		Uiso   ? 		C 		-0.03240
C 1.0  		0.8001347386647937 		-0.014231033467464915  0.3425180592717461 		Uiso   ? 		C 		-0.03240
C 1.0  		0.7990737163610815 		0.4838551378938071  0.342942317809242 		Uiso   ? 		C 		-0.03240
C 1.0  		0.205954042198421 		0.14034743350672294  0.18893646869820513 		Uiso   ? 		C 		-0.03214
C 1.0  		0.2045578499634983 		0.6381882422220042  0.18681517601072525 		Uiso   ? 		C 		-0.03214
C 1.0  		0.7051656721682392 		0.13666699381686134  0.18723943454822123 		Uiso   ? 		C 		-0.03214
C 1.0  		0.7049722057995409 		0.6381882422220042  0.18624949796073062 		Uiso   ? 		C 		-0.03214
C 1.0  		0.2068609439557556 		0.1396113455687506  0.34407367390923127 		Uiso   ? 		C 		-0.03236
C 1.0  		0.20586566034290774 		0.6386789675139858  0.34393225439673264 		Uiso   ? 		C 		-0.03236
C 1.0  		0.704013410893143 		0.13691235646285213  0.343366576346738 		Uiso   ? 		C 		-0.03236
C 1.0  		0.7033861665569376 		0.6367160663460596  0.3408210251217622 		Uiso   ? 		C 		-0.03236
C 1.0  		0.017216946870589375 		0.14918048876239082  0.20208848336058016 		Uiso   ? 		C 		-0.13070
C 1.0  		0.01596102964024343 		0.6507017371675337  0.20222990287307882 		Uiso   ? 		C 		-0.13070
C 1.0  		0.5149499432569489 		0.14721758759446463  0.20222990287307882 		Uiso   ? 		C 		-0.13070
C 1.0  		0.5172582155110363 		0.6511924624595152  0.20152280531058556 		Uiso   ? 		C 		-0.13070
C 1.0  		0.3005286765497892 		-0.016439297281381885  0.26615152252247154 		Uiso   ? 		C 		-0.03222
C 1.0  		0.2995421905597892 		0.48434586318578865  0.2640302298349917 		Uiso   ? 		C 		-0.03222
C 1.0  		0.8004611109731561 		-0.01570320934340956  0.2634645517849971 		Uiso   ? 		C 		-0.03222
C 1.0  		0.8007495660171333 		0.48508195112376096  0.2640302298349917 		Uiso   ? 		C 		-0.03222
C 1.0  		0.2058883035075566 		0.13936598292275984  0.2634645517849971 		Uiso   ? 		C 		-0.03221
C 1.0  		0.20434535979116877 		0.6381882422220042  0.2640302298349917 		Uiso   ? 		C 		-0.03221
C 1.0  		0.705297149549968 		0.1386298949847875  0.26388881032249306 		Uiso   ? 		C 		-0.03221
C 1.0  		0.7056754150073938 		0.6391696928059672  0.2627574542225038 		Uiso   ? 		C 		-0.03221
C 1.0  		0.018042835837323197 		0.1504073019923447  0.3566600105216117 		Uiso   ? 		C 		-0.12901
C 1.0  		0.015290689777822553 		0.6502110118755521  0.3575085275966037 		Uiso   ? 		C 		-0.12901
C 1.0  		0.5172215964617093 		0.14623613701050153  0.35567007393412114 		Uiso   ? 		C 		-0.12901
C 1.0  		0.5179679011957777 		0.6475120227696536  0.3579327861340997 		Uiso   ? 		C 		-0.12901
C 1.0  		0.05469218831924731 		0.2708803611738149  0.11327702951142388 		Uiso   ? 		C 		0.65942
C 1.0  		0.055348682639867086 		0.7724016095789578  0.1148326441489091 		Uiso   ? 		C 		0.65942
C 1.0  		0.5557528122951263 		0.2725978996957503  0.11610541976139699 		Uiso   ? 		C 		0.65942
C 1.0  		0.5555352742038437 		0.7753459613308471  0.11539832219890371 		Uiso   ? 		C 		0.65942
C 1.0  		0.05502735825045771 		0.2711257238198057  0.26968701033493797 		Uiso   ? 		C 		0.65957
C 1.0  		0.055169061812969766 		0.7728923348709393  0.269262751797442 		Uiso   ? 		C 		0.65957
C 1.0  		0.5545436099520136 		0.2735793502797134  0.2718083030224178 		Uiso   ? 		C 		0.65957
C 1.0  		0.5567356789241087 		0.7726469722249485  0.27039410789743124 		Uiso   ? 		C 		0.65957
C 1.0  		0.01603241687003959 		0.2853567572872706  0.24988827858512605 		Uiso   ? 		C 		-0.13514
C 1.0  		0.016991211776437587 		0.7866326430464227  0.24988827858512605 		Uiso   ? 		C 		-0.13514
C 1.0  		0.5165935241875473 		0.2843753067033075  0.250312537122622 		Uiso   ? 		C 		-0.13514
C 1.0  		0.5184110774061113 		0.787368730984395  0.25229241029760324 		Uiso   ? 		C 		-0.13514
C 1.0  		0.16511987835676936 		0.1984983806065365  0.11624683927389565 		Uiso   ? 		C 		0.65941
C 1.0  		0.1651629738829848 		0.6987928157817254  0.11709535634888758 		Uiso   ? 		C 		0.65941
C 1.0  		0.6633435937786523 		0.1975169300225734  0.11525690268640505 		Uiso   ? 		C 		0.65941
C 1.0  		0.6647602383751414 		0.699283541073707  0.11553974171140237 		Uiso   ? 		C 		0.65941
C 1.0  		0.164670826289526 		0.19972519383649034  0.2695455908224393 		Uiso   ? 		C 		0.65956
C 1.0  		0.1621464445020913 		0.6965845519678084  0.2719497225349165 		Uiso   ? 		C 		0.65956
C 1.0  		0.6643491035722835 		0.1982530179605457  0.2702526883849326 		Uiso   ? 		C 		0.65956
C 1.0  		0.6633626175822834 		0.6990381784277163  0.2705355274099299 		Uiso   ? 		C 		0.65956
C 1.0  		0.05387509697536136 		0.2713710864657965  0.1814412345357763 		Uiso   ? 		C 		0.65955
C 1.0  		0.054809820159175016 		0.7738737854549024  0.18285542966076287 		Uiso   ? 		C 		0.65955
C 1.0  		0.5548699822603761 		0.2721071744037688  0.18115839551077897 		Uiso   ? 		C 		0.65955
C 1.0  		0.5555112024812594 		0.776572774560801  0.18115839551077897 		Uiso   ? 		C 		0.65955
C 1.0  		0.0568346852882384 		0.2743154382176858  0.33459856657182135 		Uiso   ? 		C 		0.65945
C 1.0  		0.054106610951322076 		0.7728923348709393  0.3360127616968079 		Uiso   ? 		C 		0.65945
C 1.0  		0.5552139498144343 		0.274070075571695  0.33700269828429846 		Uiso   ? 		C 		0.65945
C 1.0  		0.5554695355129794 		0.774364510746884  0.3361541812093065 		Uiso   ? 		C 		0.65945
C 1.0  		0.16354263673701397 		0.19874374325252728  0.18200691258577092 		Uiso   ? 		C 		0.65955
C 1.0  		0.1655069414370431 		0.7007557169496517  0.18200691258577092 		Uiso   ? 		C 		0.65955
C 1.0  		0.6647412145715103 		0.19776229266856415  0.1817240735607736 		Uiso   ? 		C 		0.65955
C 1.0  		0.6647690359979894 		0.7010010795956425  0.18087555648578169 		Uiso   ? 		C 		0.65955
C 1.0  		0.1655777280468606 		0.19898910589851804  0.3360127616968079 		Uiso   ? 		C 		0.65944
C 1.0  		0.16034791508715854 		0.6951123760918638  0.33643702023430383 		Uiso   ? 		C 		0.65944
C 1.0  		0.6653217440204824 		0.1984983806065365  0.3375683763342931 		Uiso   ? 		C 		0.65944
C 1.0  		0.6649398592020388 		0.6987928157817254  0.3353056641343146 		Uiso   ? 		C 		0.65944
C 1.0  		0.30779134100733385 		0.02061046226322505  0.18129981502327766 		Uiso   ? 		C 		0.65955
C 1.0  		0.30951028618960125 		0.5221317106683679  0.1821483320982696 		Uiso   ? 		C 		0.65955
C 1.0  		0.8095135072227857 		0.021101187555206596  0.18030987843578705 		Uiso   ? 		C 		0.65955
C 1.0  		0.8094251253672725 		0.5194327215624693  0.18073413697328303 		Uiso   ? 		C 		0.65955
C 1.0  		0.3092787722136406 		0.02061046226322505  0.33714411779679715 		Uiso   ? 		C 		0.65945
C 1.0  		0.30968110939365073 		0.519923446854451  0.33671985925930115 		Uiso   ? 		C 		0.65945
C 1.0  		0.8086066054654512 		0.021837275493178918  0.33587134218430925 		Uiso   ? 		C 		0.65945
C 1.0  		0.8075784525071711 		0.5204141721464325  0.3361541812093065 		Uiso   ? 		C 		0.65945
C 1.0  		0.23480871752099758 		0.13175974089704584  0.1824311711232669 		Uiso   ? 		C 		0.65955
C 1.0  		0.23256256459675678 		0.629600549612327  0.18129981502327766 		Uiso   ? 		C 		0.65955
C 1.0  		0.7330148376971847 		0.1273432132692119  0.18087555648578169 		Uiso   ? 		C 		0.65955
C 1.0  		0.7344074105710896 		0.6303366375502993  0.18101697599828034 		Uiso   ? 		C 		0.65955
C 1.0  		0.23495546900246272 		0.13077829031308275  0.3379926348717891 		Uiso   ? 		C 		0.65944
C 1.0  		0.2335921461129723 		0.6291098243203456  0.33686127877179983 		Uiso   ? 		C 		0.65944
C 1.0  		0.7316260145271746 		0.12881538914515656  0.33587134218430925 		Uiso   ? 		C 		0.65944
C 1.0  		0.7306636002597588 		0.6283737363823731  0.33473998608432 		Uiso   ? 		C 		0.65944
C 1.0  		0.3095570010768344 		0.021591912847188144  0.11539832219890371 		Uiso   ? 		C 		0.65942
C 1.0  		0.30698447584423116 		0.5209048974384141  0.11582258073639969 		Uiso   ? 		C 		0.65942
C 1.0  		0.8091783372915754 		0.020855824909215823  0.1148326441489091 		Uiso   ? 		C 		0.65942
C 1.0  		0.8089760733000291 		0.5206595347924232  0.11568116122390103 		Uiso   ? 		C 		0.65942
C 1.0  		0.3073246936943947 		0.01840219844930808  0.27138404448492187 		Uiso   ? 		C 		0.65957
C 1.0  		0.30780156718811713 		0.5204141721464325  0.27081836643492724 		Uiso   ? 		C 		0.65957
C 1.0  		0.8084181870157059 		0.02061046226322505  0.26968701033493797 		Uiso   ? 		C 		0.65957
C 1.0  		0.8081349102335589 		0.5223770733143587  0.26968701033493797 		Uiso   ? 		C 		0.65957
C 1.0  		0.18267764369750092 		-0.01840219844930808  0.2510196346851153 		Uiso   ? 		C 		-0.13061
C 1.0  		0.18379198770821192 		0.48360977524781634  0.24974685907262742 		Uiso   ? 		C 		-0.13061
C 1.0  		0.686491842290816 		-0.01840219844930808  0.24635279077265965 		Uiso   ? 		C 		-0.13061
C 1.0  		0.6832337030960556 		0.48336441260182555  0.25045395663512066 		Uiso   ? 		C 		-0.13061
C 1.0  		0.28734949758941686 		0.2848660319952891  0.20336125897306806 		Uiso   ? 		C 		-0.13070
C 1.0  		0.28760508328796186 		0.785160467170478  0.20420977604806 		Uiso   ? 		C 		-0.13070
C 1.0  		0.7905350232885913 		0.28658357051722444  0.20095712726059092 		Uiso   ? 		C 		-0.13070
C 1.0  		0.7907007985736876 		0.7871233683384042  0.20152280531058556 		Uiso   ? 		C 		-0.13070
C 1.0  		0.18171380087214983 		-0.016930022573363433  0.0978623026490703 		Uiso   ? 		C 		-0.12965
C 1.0  		0.18118516457224115 		0.48434586318578865  0.09757946362407299 		Uiso   ? 		C 		-0.12965
C 1.0  		0.682217967121641 		-0.01717538521935421  0.09602384898658778 		Uiso   ? 		C 		-0.12965
C 1.0  		0.6822851343704408 		0.4818922367258809  0.09673094654908107 		Uiso   ? 		C 		-0.12965
C 1.0  		0.1961821887192227 		0.05790558445382275  -0.0032526487874691 		Uiso   ? 		C 		0.54392
C 1.0  		0.19696783927561182 		0.5550103052311317  -0.005515360987447604 		Uiso   ? 		C 		0.54392
C 1.0  		0.6971923481039738 		0.05569732063990579  -0.008626590262418047 		Uiso   ? 		C 		0.54392
C 1.0  		0.6972178483844935 		0.5525566787712238  -0.005091102449951634 		Uiso   ? 		C 		0.54392
C 1.0  		0.38048338329667786 		0.05422514476396114  -0.007495234162428795 		Uiso   ? 		C 		0.54392
C 1.0  		0.3830939561365435 		0.5579546569830209  -0.0065052975749382 		Uiso   ? 		C 		0.54392
C 1.0  		0.8816666870314379 		0.05618804593188734  -0.005939619524943574 		Uiso   ? 		C 		0.54392
C 1.0  		0.8829277825236139 		0.5572185690450486  -0.003535487812466413 		Uiso   ? 		C 		0.54392
C 1.0  		0.32038127422984153 		0.25615860241436844  0.045395663512068744 		Uiso   ? 		C 		-0.13077
C 1.0  		0.3224353893433193 		0.757925213465502  0.04482998546207412 		Uiso   ? 		C 		-0.13077
C 1.0  		0.8190211723735356 		0.25345961330846994  0.04850689278703919 		Uiso   ? 		C 		-0.13077
C 1.0  		0.8232001892103086 		0.7552262243596035  0.04511282448707143 		Uiso   ? 		C 		-0.13077
C 1.0  		0.38301076818400603 		0.2394739424869958  -0.00890942928741536 		Uiso   ? 		C 		0.54391
C 1.0  		0.37787308678371195 		0.741731278830111  -0.008768009774916704 		Uiso   ? 		C 		0.54391
C 1.0  		0.8820691701954706 		0.241436843654922  -0.007636653674927452 		Uiso   ? 		C 		0.54391
C 1.0  		0.8828964877201398 		0.7407498282461479  -0.00820233172492208 		Uiso   ? 		C 		0.54391
C 1.0  		0.09490318182166739 		0.16218470899990187  -0.006646717087436856 		Uiso   ? 		C 		0.54391
C 1.0  		0.09422779404029352 		0.6644420453430171  -0.009192268312412674 		Uiso   ? 		C 		0.54391
C 1.0  		0.5863841527970218 		0.16046717047796646  -0.006363878062439543 		Uiso   ? 		C 		0.54391
C 1.0  		0.5921973523215668 		0.6612523309451369  -0.008060912212423423 		Uiso   ? 		C 		0.54391
C 1.0  		0.09009849519064701 		0.3442437923250565  -0.0049496829374529785 		Uiso   ? 		C 		0.54392
C 1.0  		0.09323265641146833 		0.849445480420061  -0.007495234162428795 		Uiso   ? 		C 		0.54392
C 1.0  		0.5925655375822321 		0.34792423201491807  -0.008060912212423423 		Uiso   ? 		C 		0.54392
C 1.0  		0.5945779857274298 		0.8474825792521348  -0.0097579463624073 		Uiso   ? 		C 		0.54392
C 1.0  		0.27915133101902356 		0.3496417705368535  -0.009192268312412674 		Uiso   ? 		C 		0.54392
C 1.0  		0.2784342762693696 		0.8496908430660517  -0.0073538146499301385 		Uiso   ? 		C 		0.54392
C 1.0  		0.7741613009874198 		0.3435077043870841  -0.005656780499946261 		Uiso   ? 		C 		0.54392
C 1.0  		0.7772209258945288 		0.84601040337619  -0.00608103903744223 		Uiso   ? 		C 		0.54392
C 1.0  		0.12711333848527628 		0.233830601629208  0.0705683367368296 		Uiso   ? 		C 		0.60440
C 1.0  		0.12695921793889867 		0.7311806850525077  0.07099259527432557 		Uiso   ? 		C 		0.60440
C 1.0  		0.6223533938716979 		0.23113161252330947  0.07141685381182154 		Uiso   ? 		C 		0.60440
C 1.0  		0.6286332407091819 		0.734125036804397  0.07014407819933363 		Uiso   ? 		C 		0.60440
C 1.0  		0.01672035197815616 		0.289282559623123  0.04511282448707143 		Uiso   ? 		C 		-0.13600
C 1.0  		0.017514800157393207 		0.7881048189223674  0.045395663512068744 		Uiso   ? 		C 		-0.13600
C 1.0  		0.51641390336065 		0.2848660319952891  0.04794121473704456 		Uiso   ? 		C 		-0.13600
C 1.0  		0.5171930774401506 		0.7866326430464227  0.04596134156206337 		Uiso   ? 		C 		-0.13600
C 1.0  		0.20482510604190765 		0.3170085386200805  0.07070975624932826 		Uiso   ? 		C 		0.60440
C 1.0  		0.20515938338509404 		0.8089606438315832  0.07070975624932826 		Uiso   ? 		C 		0.60440
C 1.0  		0.7019752518333355 		0.30793012071842185  0.07127543429932288 		Uiso   ? 		C 		0.60440
C 1.0  		0.7059922430889072 		0.8136225341054079  0.07127543429932288 		Uiso   ? 		C 		0.60440
C 1.0  		0.018704378076896087 		0.14918048876239082  0.09446823434910256 		Uiso   ? 		C 		-0.12965
C 1.0  		0.01807713374069081 		0.6489841986455982  0.09559959044909182 		Uiso   ? 		C 		-0.12965
C 1.0  		0.5141175778133265 		0.15065266463833546  0.09446823434910256 		Uiso   ? 		C 		-0.12965
C 1.0  		0.5167017577846484 		0.649229561291589  0.09588242947408912 		Uiso   ? 		C 		-0.12965
C 1.0  		0.12793421185809067 		0.3111198351163019  0.07198253186181616 		Uiso   ? 		C 		0.60440
C 1.0  		0.12562232024298553 		0.8079791932476201  0.07184111234931752 		Uiso   ? 		C 		0.60440
C 1.0  		0.6256014695535856 		0.30817548336441264  0.07099259527432557 		Uiso   ? 		C 		0.60440
C 1.0  		0.6290050620147529 		0.8126410835214447  0.07028549771183229 		Uiso   ? 		C 		0.60440
C 1.0  		0.2695292967712511 		0.09495534399842968  0.0715582733243202 		Uiso   ? 		C 		0.60440
C 1.0  		0.26908814973883166 		0.5896064383158308  0.07028549771183229 		Uiso   ? 		C 		0.60440
C 1.0  		0.7680377175332165 		0.09029345372460497  0.0715582733243202 		Uiso   ? 		C 		0.60440
C 1.0  		0.7686437472627082 		0.5878888997938954  0.07127543429932288 		Uiso   ? 		C 		0.60440
C 1.0  		0.34941178835038694 		0.16930022573363432  0.07184111234931752 		Uiso   ? 		C 		0.60440
C 1.0  		0.345785609878984 		0.6703307488467957  0.0705683367368296 		Uiso   ? 		C 		0.60440
C 1.0  		0.8441875175698288 		0.17077240160957896  0.07184111234931752 		Uiso   ? 		C 		0.60440
C 1.0  		0.839137325437024 		0.6664049465109433  0.0715582733243202 		Uiso   ? 		C 		0.60440
C 1.0  		0.34379345142744205 		0.09176562960054963  0.07212395137431482 		Uiso   ? 		C 		0.60440
C 1.0  		0.3448989978153052 		0.5920600647757386  0.07127543429932288 		Uiso   ? 		C 		0.60440
C 1.0  		0.8485978857146519 		0.09544606929041125  0.0705683367368296 		Uiso   ? 		C 		0.60440
C 1.0  		0.8476507455469726 		0.5920600647757386  0.07099259527432557 		Uiso   ? 		C 		0.60440
C 1.0  		0.13650390776600968 		0.9529885170281677  0.07283104893680811 		Uiso   ? 		C 		-0.24399
C 1.0  		0.13905236127602869 		0.45490234566689575  0.07184111234931752 		Uiso   ? 		C 		-0.24399
C 1.0  		0.638405694808359 		0.9529885170281677  0.0705683367368296 		Uiso   ? 		C 		-0.24399
C 1.0  		0.6351664490743526 		0.4509765433310433  0.0715582733243202 		Uiso   ? 		C 		-0.24399
C 1.0  		-0.012221552968898049 		0.10305231131612523  0.07014407819933363 		Uiso   ? 		C 		-0.24399
C 1.0  		0.9882340715075915 		0.6050642850132497  0.07099259527432557 		Uiso   ? 		C 		-0.24399
C 1.0  		0.48512813004108246 		0.10329767396211602  0.0725482099118108 		Uiso   ? 		C 		-0.24399
C 1.0  		0.48627534339722567 		0.6058003729512219  0.07099259527432557 		Uiso   ? 		C 		-0.24399
C 1.0  		0.33209975582941775 		0.2978702522328001  0.07113401478682423 		Uiso   ? 		C 		-0.24399
C 1.0  		0.3348242108053164 		0.8001275885759153  0.07028549771183229 		Uiso   ? 		C 		-0.24399
C 1.0  		0.8327353994606378 		0.2995877907547355  0.07127543429932288 		Uiso   ? 		C 		-0.24399
C 1.0  		0.8369866314651637 		0.7976739621160075  0.07085117576182691 		Uiso   ? 		C 		-0.24399
C 1.0  		0.1555382128622187 		0.9532338796741584  0.09050848799914017 		Uiso   ? 		C 		0.11818
C 1.0  		0.15777556816361157 		0.4536755324369418  0.08923571238665226 		Uiso   ? 		C 		0.11818
C 1.0  		0.6566141109378342 		0.9520070664442046  0.08895287336165494 		Uiso   ? 		C 		0.11818
C 1.0  		0.654928035100999 		0.4509765433310433  0.0890942928741536 		Uiso   ? 		C 		0.11818
C 1.0  		0.15610450678350107 		0.151143389930317  0.04850689278703919 		Uiso   ? 		C 		-0.13600
C 1.0  		0.1541277850996063 		0.6482481107076259  0.04610276107456203 		Uiso   ? 		C 		-0.13600
C 1.0  		0.6490465160966185 		0.14427323584257534  0.04468856594957546 		Uiso   ? 		C 		-0.13600
C 1.0  		0.6515913502456198 		0.647021297477672  0.046951278149553966 		Uiso   ? 		C 		-0.13600
C 1.0  		-0.01184655025437728 		0.12292668564137797  0.08796293677416435 		Uiso   ? 		C 		0.11819
C 1.0  		0.9876605054964975 		0.6234664834625577  0.08838719531166032 		Uiso   ? 		C 		0.11819
C 1.0  		0.4847670542023181 		0.12169987241142409  0.09022564897414286 		Uiso   ? 		C 		0.11819
C 1.0  		0.48618369879880724 		0.6234664834625577  0.08895287336165494 		Uiso   ? 		C 		0.11819
C 1.0  		0.28577873244655005 		0.28044950436745514  0.09390255629910793 		Uiso   ? 		C 		-0.12965
C 1.0  		0.29019663232419635 		0.787368730984395  0.09559959044909182 		Uiso   ? 		C 		-0.12965
C 1.0  		0.7887036245282262 		0.28462066934929825  0.09588242947408912 		Uiso   ? 		C 		-0.12965
C 1.0  		0.7876097328790819 		0.7822161154185888  0.09376113678660927 		Uiso   ? 		C 		-0.12965
C 1.0  		0.3124450885009262 		0.277259789969575  0.0888114538491563 		Uiso   ? 		C 		0.11818
C 1.0  		0.3150885306862241 		0.7814800274806164  0.08810435628666301 		Uiso   ? 		C 		0.11818
C 1.0  		0.8136043205131019 		0.28044950436745514  0.08867003433665764 		Uiso   ? 		C 		0.11818
C 1.0  		0.8140548011382807 		0.7773088624987733  0.08753867823666839 		Uiso   ? 		C 		0.11818
C 1.0  		0.1581779053436217 		0.9529885170281677  0.05571928792447067 		Uiso   ? 		C 		0.11878
C 1.0  		0.15774269881817937 		0.4531848071449603  0.05444651231198276 		Uiso   ? 		C 		0.11878
C 1.0  		0.6591968623512208 		0.9524977917361862  0.05501219036197739 		Uiso   ? 		C 		0.11878
C 1.0  		0.6534975449627087 		0.450240455393071  0.053880834261988135 		Uiso   ? 		C 		0.11878
C 1.0  		-0.01251689011679806 		0.12243596034939641  0.052608058649500224 		Uiso   ? 		C 		0.11878
C 1.0  		0.9885850024995279 		0.6261654725684562  0.0543050927994841 		Uiso   ? 		C 		0.11878
C 1.0  		0.4851679628243928 		0.12292668564137797  0.05458793182448142 		Uiso   ? 		C 		0.11878
C 1.0  		0.48652766635286554 		0.6254293846304839  0.054163673286985445 		Uiso   ? 		C 		0.11878
C 1.0  		0.3135163369854218 		0.27897732849151047  0.05402225377448679 		Uiso   ? 		C 		0.11878
C 1.0  		0.3145649423052685 		0.7800078516046717  0.05345657572449217 		Uiso   ? 		C 		0.11878
C 1.0  		0.8157620915818293 		0.28094022965943666  0.05373941474948948 		Uiso   ? 		C 		0.11878
C 1.0  		0.819139291174453 		0.7802532142506626  0.052466639137001565 		Uiso   ? 		C 		0.11878
C 1.0  		0.19751265894716902 		0.9517617037982138  0.026162609812251457 		Uiso   ? 		C 		-0.08216
C 1.0  		0.19926809283588634 		0.45293944449896956  0.02644544883724877 		Uiso   ? 		C 		-0.08216
C 1.0  		0.6998722956796095 		0.9522524290901954  0.025314092737259517 		Uiso   ? 		C 		-0.08216
C 1.0  		0.6983658406696717 		0.4507311806850525  0.027011126887243397 		Uiso   ? 		C 		-0.08216
C 1.0  		0.3203712753670362 		-0.01840219844930808  0.04779979522454591 		Uiso   ? 		C 		-0.13600
C 1.0  		0.32109350837852035 		0.48410050053979786  0.046951278149553966 		Uiso   ? 		C 		-0.13600
C 1.0  		0.8270047872686517 		-0.019138286387280403  0.043698629362084865 		Uiso   ? 		C 		-0.13600
C 1.0  		0.8214333279008506 		0.4814015114338993  0.046668439124556656 		Uiso   ? 		C 		-0.13600
C 1.0  		-0.012509439717930199 		0.16537442339778194  0.024748414687264887 		Uiso   ? 		C 		-0.08216
C 1.0  		0.9878147073768305 		0.6654234959269801  0.02361705858727564 		Uiso   ? 		C 		-0.08216
C 1.0  		0.48674385722016816 		0.1639022475218373  0.024465575662267574 		Uiso   ? 		C 		-0.08216
C 1.0  		0.4868855607826802 		0.665668858572971  0.02432415614976892 		Uiso   ? 		C 		-0.08216
C 1.0  		0.2711094601569446 		0.2375110413190696  0.02559693176225683 		Uiso   ? 		C 		-0.08216
C 1.0  		0.27218213719937545 		0.737314751202277  0.0260211902997528 		Uiso   ? 		C 		-0.08216
C 1.0  		0.7736815870617146 		0.23800176661105116  0.025314092737259517 		Uiso   ? 		C 		-0.08216
C 1.0  		0.7735932052062013 		0.7363333006183139  0.025314092737259517 		Uiso   ? 		C 		-0.08216
C 1.0  		0.31766821434964987 		0.9532338796741584  0.08895287336165494 		Uiso   ? 		C 		0.11983
C 1.0  		0.31607194892626334 		0.45195799391500646  0.08994280994914555 		Uiso   ? 		C 		0.11983
C 1.0  		0.8120583090467535 		0.95053489056826  0.0848517074991939 		Uiso   ? 		C 		0.11983
C 1.0  		0.8155706053821234 		0.4509765433310433  0.08852861482415898 		Uiso   ? 		C 		0.11983
C 1.0  		0.20423775913908 		-0.016930022573363433  0.11143857584894135 		Uiso   ? 		C 		-0.03222
C 1.0  		0.20635761294342217 		0.48581803906173326  0.10988296121145612 		Uiso   ? 		C 		-0.03222
C 1.0  		0.7056335530461695 		-0.014967121405437237  0.10903444413646418 		Uiso   ? 		C 		-0.03222
C 1.0  		0.7057905307084178 		0.4838551378938071  0.10945870267396014 		Uiso   ? 		C 		-0.03222
C 1.0  		-0.014299057851026115 		0.2782412405535381  0.0865487416491778 		Uiso   ? 		C 		0.11983
C 1.0  		0.9867130243518512 		0.7822161154185888  0.08867003433665764 		Uiso   ? 		C 		0.11983
C 1.0  		0.48664768398881997 		0.28143095495141823  0.08994280994914555 		Uiso   ? 		C 		0.11983
C 1.0  		0.4849163218226869 		0.7790264010207086  0.08753867823666839 		Uiso   ? 		C 		0.11983
C 1.0  		0.1548267576425748 		0.12096378447345177  0.09022564897414286 		Uiso   ? 		C 		0.11983
C 1.0  		0.15876921258443416 		0.6239572087545393  0.0900842294616442 		Uiso   ? 		C 		0.11983
C 1.0  		0.6575544336516579 		0.12219059770340564  0.08739725872416973 		Uiso   ? 		C 		0.11983
C 1.0  		0.6587257187303854 		0.6234664834625577  0.08782151726166569 		Uiso   ? 		C 		0.11983
C 1.0  		0.3168094560374839 		0.951516341152223  0.05458793182448142 		Uiso   ? 		C 		0.11921
C 1.0  		0.3162603673760086 		0.4531848071449603  0.053880834261988135 		Uiso   ? 		C 		0.11921
C 1.0  		0.8201898766632919 		0.9497988026302876  0.05119386352451366 		Uiso   ? 		C 		0.11921
C 1.0  		0.81705803658843 		0.4509765433310433  0.05274947816199888 		Uiso   ? 		C 		0.11921
C 1.0  		-0.01439534474136328 		0.28314849347335364  0.052183800112004256 		Uiso   ? 		C 		0.11921
C 1.0  		0.9861565666254635 		0.7802532142506626  0.05402225377448679 		Uiso   ? 		C 		0.11921
C 1.0  		0.4852412655731141 		0.27946805378349204  0.054163673286985445 		Uiso   ? 		C 		0.11921
C 1.0  		0.48552972061709126 		0.7802532142506626  0.05345657572449217 		Uiso   ? 		C 		0.11921
C 1.0  		0.15921683609374207 		0.12464422416331339  0.0552950293869747 		Uiso   ? 		C 		0.11921
C 1.0  		0.16108253275747464 		0.6251840219844932  0.05472935133698007 		Uiso   ? 		C 		0.11921
C 1.0  		0.6569739042026859 		0.12145450976543332  0.05303231718699619 		Uiso   ? 		C 		0.11921
C 1.0  		0.6564693396253614 		0.6215035822946315  0.05402225377448679 		Uiso   ? 		C 		0.11921
C 1.0  		0.33599051261515805 		0.9507802532142507  0.07141685381182154 		Uiso   ? 		C 		-0.24357
C 1.0  		0.33538448288566625 		0.4531848071449603  0.07184111234931752 		Uiso   ? 		C 		-0.24357
C 1.0  		0.8352438095532564 		0.9493080773383061  0.06957840014933901 		Uiso   ? 		C 		-0.24357
C 1.0  		0.8346618515463489 		0.4504858180390618  0.07070975624932826 		Uiso   ? 		C 		-0.24357
C 1.0  		-0.014666610166679 		0.3013053292766709  0.0705683367368296 		Uiso   ? 		C 		-0.24357
C 1.0  		0.9838261381677168 		0.799391500637943  0.07141685381182154 		Uiso   ? 		C 		-0.24357
C 1.0  		0.48582875845996437 		0.29934242810874473  0.07240679039931214 		Uiso   ? 		C 		-0.24357
C 1.0  		0.4853482656052242 		0.7981646874079891  0.07014407819933363 		Uiso   ? 		C 		-0.24357
C 1.0  		0.13716783580160927 		0.10476984983806066  0.0725482099118108 		Uiso   ? 		C 		-0.24357
C 1.0  		0.14061077408509726 		0.6050642850132497  0.0725482099118108 		Uiso   ? 		C 		-0.24357
C 1.0  		0.6386599165990359 		0.10182549808617136  0.07042691722433095 		Uiso   ? 		C 		-0.24357
C 1.0  		0.6368234699197177 		0.6026106585533418  0.0715582733243202 		Uiso   ? 		C 		-0.24357
C 1.0  		0.18523692400828187 		0.1197369712434979  0.04963824888702843 		Uiso   ? 		C 		-0.13600
C 1.0  		0.1854596403613947 		0.6195406811267054  0.04765837571204725 		Uiso   ? 		C 		-0.13600
C 1.0  		0.6822009724959239 		0.1158111689076455  0.045254243999570086 		Uiso   ? 		C 		-0.13600
C 1.0  		0.6779437999844209 		0.6121798017469822  0.0455370830245674 		Uiso   ? 		C 		-0.13600
C 1.0  		0.2716388597447428 		0.9512709785062322  0.02644544883724877 		Uiso   ? 		C 		-0.08298
C 1.0  		0.2766145155638352 		0.45293944449896956  0.02432415614976892 		Uiso   ? 		C 		-0.08298
C 1.0  		0.7763928294408246 		0.9510256158602415  0.024182736637270268 		Uiso   ? 		C 		-0.08298
C 1.0  		0.7722554795723315 		0.4514672686230249  0.026586868349747425 		Uiso   ? 		C 		-0.08298
C 1.0  		-0.012188083003487143 		0.23996466777897735  0.02517267322476086 		Uiso   ? 		C 		-0.08299
C 1.0  		0.9867953843664319 		0.7390322897242124  0.02517267322476086 		Uiso   ? 		C 		-0.08299
C 1.0  		0.4854791746920079 		0.23702031602708803  0.025738351274755485 		Uiso   ? 		C 		-0.08299
C 1.0  		0.48660231632556683 		0.7407498282461479  0.02361705858727564 		Uiso   ? 		C 		-0.08299
C 1.0  		0.20265329443843477 		0.16561978604377273  0.02686970737474474 		Uiso   ? 		C 		-0.08298
C 1.0  		0.19809382134115347 		0.6622337815291001  0.02319280004977967 		Uiso   ? 		C 		-0.08298
C 1.0  		0.7001738006524647 		0.16365688487584654  0.024606995174766232 		Uiso   ? 		C 		-0.08298
C 1.0  		0.6956383992777677 		0.65904406713122  0.023758478099774296 		Uiso   ? 		C 		-0.08298
C 1.0  		0.2992215804493475 		0.23211306310727256  0.10974154169895746 		Uiso   ? 		C 		-0.03222
C 1.0  		0.3005812839778203 		0.7346157620963786  0.10931728316146148 		Uiso   ? 		C 		-0.03222
C 1.0  		0.8002493350797943 		0.23333987633722644  0.1096001221864588 		Uiso   ? 		C 		-0.03222
C 1.0  		0.7983952931547804 		0.7306899597605262  0.10945870267396014 		Uiso   ? 		C 		-0.03222
C 1.0  		0.1529424271610998 		0.4227598390421043  0.09588242947408912 		Uiso   ? 		C 		-0.12965
C 1.0  		0.15085182334117203 		0.9213367356953578  0.09658952703658241 		Uiso   ? 		C 		-0.12965
C 1.0  		0.6508550443743566 		0.4203062125821965  0.09559959044909182 		Uiso   ? 		C 		-0.12965
C 1.0  		0.6542410415898281 		0.9213367356953578  0.09347829776161196 		Uiso   ? 		C 		-0.12965
C 1.0  		0.4538397759325439 		0.1167926194916086  0.09701378557407837 		Uiso   ? 		C 		-0.12965
C 1.0  		0.4570308782213816 		0.6212582196486407  0.09390255629910793 		Uiso   ? 		C 		-0.12965
C 1.0  		0.9578030471532833 		0.12219059770340564  0.09291261971161734 		Uiso   ? 		C 		-0.12965
C 1.0  		0.9568559069856042 		0.6188045931887329  0.09503391239909718 		Uiso   ? 		C 		-0.12965
C 1.0  		0.15375951850498576 		0.4222691137501227  0.049072570837033806 		Uiso   ? 		C 		-0.13077
C 1.0  		0.1536799342723203 		0.9223181862793209  0.049213990349532465 		Uiso   ? 		C 		-0.13077
C 1.0  		0.6479699923751918 		0.42006084993620574  0.046527019612058 		Uiso   ? 		C 		-0.13077
C 1.0  		0.6544206624167254 		0.9208460104033763  0.048365473274540535 		Uiso   ? 		C 		-0.13077
C 1.0  		0.4551980509030812 		0.12120914711944254  0.04893115132453515 		Uiso   ? 		C 		-0.13077
C 1.0  		0.4562202633543842 		0.6170870546667976  0.044971404974572776 		Uiso   ? 		C 		-0.13077
C 1.0  		0.9563461641464497 		0.11630189419962705  0.04468856594957546 		Uiso   ? 		C 		-0.13077
C 1.0  		0.9582711230241581 		0.6224850328785946  0.048365473274540535 		Uiso   ? 		C 		-0.13077
C 1.0  		0.32317531457560017 		-0.01619393463539111  0.09559959044909182 		Uiso   ? 		C 		-0.13444
C 1.0  		0.320055129239457 		0.482873687309844  0.09559959044909182 		Uiso   ? 		C 		-0.13444
C 1.0  		0.8179334485493461 		-0.018156835803317305  0.09220552214912406 		Uiso   ? 		C 		-0.13444
C 1.0  		0.8192514851095388 		0.4821375993718717  0.09460965386160121 		Uiso   ? 		C 		-0.13444
C 1.0  		0.1738803461854267 		0.4212876631661596  0.10931728316146148 		Uiso   ? 		C 		-0.03222
C 1.0  		0.17098792512134942 		0.9174109333595054  0.11016580023645343 		Uiso   ? 		C 		-0.03222
C 1.0  		0.6733702050184389 		0.41858867406026107  0.10875160511146686 		Uiso   ? 		C 		-0.03222
C 1.0  		0.6743289999248367 		0.9198645598194132  0.10875160511146686 		Uiso   ? 		C 		-0.03222
C 1.0  		0.452769014409038 		0.1388752576307783  0.1105900587739494 		Uiso   ? 		C 		-0.03223
C 1.0  		0.45418565900552726 		0.640641868681912  0.10818592706147223 		Uiso   ? 		C 		-0.03223
C 1.0  		0.9556763112450184 		0.1396113455687506  0.10875160511146686 		Uiso   ? 		C 		-0.03223
C 1.0  		0.9550731386313974 		0.6381882422220042  0.11002438072395478 		Uiso   ? 		C 		-0.03223
C 1.0  		0.17427245718465356 		0.4207969378741781  0.03493061958716816 		Uiso   ? 		C 		-0.02997
C 1.0  		0.17373502326189694 		0.9203552851113946  0.03422352202467488 		Uiso   ? 		C 		-0.02997
C 1.0  		0.6714249241220409 		0.41809794876827955  0.03436494153717353 		Uiso   ? 		C 		-0.02997
C 1.0  		0.6739609606481942 		0.9191284718814409  0.03323358543718428 		Uiso   ? 		C 		-0.02997
C 1.0  		0.45484577268716475 		0.14132888409068603  0.03422352202467488 		Uiso   ? 		C 		-0.02998
C 1.0  		0.45484720124510014 		0.639415055451958  0.03224364884969369 		Uiso   ? 		C 		-0.02998
C 1.0  		0.9550957817960464 		0.1388752576307783  0.03295074641218697 		Uiso   ? 		C 		-0.02998
C 1.0  		0.9552703547039907 		0.6411325939738934  0.032526487874691 		Uiso   ? 		C 		-0.02998
C 1.0  		0.2042136874164957 		-0.01570320934340956  0.034789200074669506 		Uiso   ? 		C 		-0.02997
C 1.0  		0.2036521817711548 		0.48508195112376096  0.03280932689968832 		Uiso   ? 		C 		-0.02997
C 1.0  		0.7053312524603912 		-0.014721758759446462  0.032526487874691 		Uiso   ? 		C 		-0.02997
C 1.0  		0.7036568313622747 		0.4821375993718717  0.035496297637162784 		Uiso   ? 		C 		-0.02997
C 1.0  		0.2887805883476858 		0.42202375110413193  0.09489249288659853 		Uiso   ? 		C 		-0.13444
C 1.0  		0.29110413470150964 		0.9230542742172932  0.09588242947408912 		Uiso   ? 		C 		-0.13444
C 1.0  		0.7909189372849489 		0.4207969378741781  0.09616526849908644 		Uiso   ? 		C 		-0.13444
C 1.0  		0.7844646478823976 		0.9208460104033763  0.09050848799914017 		Uiso   ? 		C 		-0.13444
C 1.0  		0.4567758931428153 		0.2573854156443223  0.0978623026490703 		Uiso   ? 		C 		-0.13444
C 1.0  		0.45553525001220574 		0.7559623122975758  0.09602384898658778 		Uiso   ? 		C 		-0.13444
C 1.0  		0.9552602421821963 		0.25395033860045146  0.09446823434910256 		Uiso   ? 		C 		-0.13444
C 1.0  		0.9563505144703229 		0.7571891255275297  0.09701378557407837 		Uiso   ? 		C 		-0.13444
C 1.0  		0.2917883201057314 		0.4225144763961135  0.046527019612058 		Uiso   ? 		C 		-0.13600
C 1.0  		0.28806353359803183 		0.9220728236333301  0.048365473274540535 		Uiso   ? 		C 		-0.13600
C 1.0  		0.7903384078359768 		0.42006084993620574  0.04624418058706068 		Uiso   ? 		C 		-0.13600
C 1.0  		0.7925304768080719 		0.9191284718814409  0.04468856594957546 		Uiso   ? 		C 		-0.13600
C 1.0  		0.45399592565683555 		0.25395033860045146  0.046668439124556656 		Uiso   ? 		C 		-0.13600
C 1.0  		0.4557718119071195 		0.754735499067622  0.046951278149553966 		Uiso   ? 		C 		-0.13600
C 1.0  		0.9561606674626424 		0.25787614093630384  0.04511282448707143 		Uiso   ? 		C 		-0.13600
C 1.0  		0.957012056709896 		0.7559623122975758  0.04596134156206337 		Uiso   ? 		C 		-0.13600
C 1.0  		0.2679148844911118 		0.419815487290215  0.11002438072395478 		Uiso   ? 		C 		-0.03230
C 1.0  		0.26869405857061235 		0.9215820983413485  0.1096001221864588 		Uiso   ? 		C 		-0.03230
C 1.0  		0.7668987501888642 		0.41907939935224264  0.10846876608646955 		Uiso   ? 		C 		-0.03230
C 1.0  		0.7638114341981532 		0.9186377465894594  0.10549895632399776 		Uiso   ? 		C 		-0.03230
C 1.0  		0.4546921714268104 		0.23579350279713418  0.11157999536143999 		Uiso   ? 		C 		-0.03230
C 1.0  		0.45424454791750246 		0.73510648738836  0.11044863926145074 		Uiso   ? 		C 		-0.03230
C 1.0  		0.9532005921887757 		0.23113161252330947  0.10846876608646955 		Uiso   ? 		C 		-0.03230
C 1.0  		0.9548866680256108 		0.7321621356364708  0.1086101855989682 		Uiso   ? 		C 		-0.03230
C 1.0  		0.26895326363017513 		0.42104230052016883  0.03266790738718966 		Uiso   ? 		C 		-0.03035
C 1.0  		0.2646150783280713 		0.9193738345274316  0.03493061958716816 		Uiso   ? 		C 		-0.03035
C 1.0  		0.7665307109122217 		0.41834331141427034  0.033516424462181595 		Uiso   ? 		C 		-0.03035
C 1.0  		0.7685760284028516 		0.9183923839434684  0.031819390312197715 		Uiso   ? 		C 		-0.03035
C 1.0  		0.4527204976618687 		0.23015016193934637  0.03394068299967756 		Uiso   ? 		C 		-0.03035
C 1.0  		0.4539663190543085 		0.734125036804397  0.031677970799699064 		Uiso   ? 		C 		-0.03035
C 1.0  		0.9546727492953461 		0.23407596427519875  0.03295074641218697 		Uiso   ? 		C 		-0.03035
C 1.0  		0.9541593870951737 		0.7324074982824615  0.03280932689968832 		Uiso   ? 		C 		-0.03035
C 1.0  		0.1799640155223643 		0.11556580626165473  0.0963066880115851 		Uiso   ? 		C 		-0.13444
C 1.0  		0.1873808495352084 		0.6212582196486407  0.09602384898658778 		Uiso   ? 		C 		-0.13444
C 1.0  		0.6803455020129747 		0.11507508096967319  0.09588242947408912 		Uiso   ? 		C 		-0.13444
C 1.0  		0.6831028263343054 		0.6178231426047699  0.09559959044909182 		Uiso   ? 		C 		-0.13444
C 1.0  		0.1651543222441596 		0.3830110903915988  0.027859643962235336 		Uiso   ? 		C 		0.65551
C 1.0  		0.16574507787391501 		0.8835508882127786  0.027859643962235336 		Uiso   ? 		C 		0.65551
C 1.0  		0.6633122989751781 		0.3810481892236726  0.028566741524728618 		Uiso   ? 		C 		0.65551
C 1.0  		0.665635845329002 		0.882078712336834  0.025738351274755485 		Uiso   ? 		C 		0.65551
C 1.0  		0.41766414786042616 		0.1302875650211012  0.026162609812251457 		Uiso   ? 		C 		0.65552
C 1.0  		0.41733920410999903 		0.6298459122583179  0.025738351274755485 		Uiso   ? 		C 		0.65552
C 1.0  		0.9183479349368149 		0.1295514770831289  0.025879770787254144 		Uiso   ? 		C 		0.65552
C 1.0  		0.9172628409105181 		0.6288644616743548  0.025455512249758172 		Uiso   ? 		C 		0.65552
C 1.0  		0.29944286824452493 		0.233830601629208  0.03196080982469637 		Uiso   ? 		C 		-0.02997
C 1.0  		0.2995100354933247 		0.7328982235744431  0.03323358543718428 		Uiso   ? 		C 		-0.02997
C 1.0  		0.7994563154584927 		0.2326037883992541  0.03323358543718428 		Uiso   ? 		C 		-0.02997
C 1.0  		0.7998827243610871 		0.7306899597605262  0.03266790738718966 		Uiso   ? 		C 		-0.02997
C 1.0  		0.23971430100924024 		0.3842379036215527  0.02686970737474474 		Uiso   ? 		C 		0.65728
C 1.0  		0.2393236185679488 		0.8828148002748062  0.02715254639974205 		Uiso   ? 		C 		0.65728
C 1.0  		0.7377736697039622 		0.38080282657768183  0.027435385424739365 		Uiso   ? 		C 		0.65728
C 1.0  		0.7390676345415705 		0.8823240749828247  0.026162609812251457 		Uiso   ? 		C 		0.65728
C 1.0  		0.415851805228726 		0.20316027088036118  0.027011126887243397 		Uiso   ? 		C 		0.65729
C 1.0  		0.41846237806859155 		0.706889783099421  0.0250312537122622 		Uiso   ? 		C 		0.65729
C 1.0  		0.9185794812378091 		0.20438708411031506  0.026304029324750112 		Uiso   ? 		C 		0.65729
C 1.0  		0.9171920866257344 		0.7039454313475317  0.026304029324750112 		Uiso   ? 		C 		0.65729
C 1.0  		0.019480289413491628 		0.1702816763175974  0.031536551287200405 		Uiso   ? 		C 		-0.02998
C 1.0  		0.019891424216349707 		0.6713121994307588  0.03125371226220309 		Uiso   ? 		C 		-0.02998
C 1.0  		0.518619704215557 		0.1702816763175974  0.03323358543718428 		Uiso   ? 		C 		-0.02998
C 1.0  		0.5193660089496255 		0.6715575620767495  0.032526487874691 		Uiso   ? 		C 		-0.02998
C 1.0  		0.017902674491735562 		0.2593483168122485  0.1053575368114991 		Uiso   ? 		C 		-0.03230
C 1.0  		0.020031325918925647 		0.7638139169692807  0.10776166852397627 		Uiso   ? 		C 		-0.03230
C 1.0  		0.520363240406432 		0.26769064677593485  0.11087289779894671 		Uiso   ? 		C 		-0.03230
C 1.0  		0.5192693487572876 		0.7652860928452253  0.1086101855989682 		Uiso   ? 		C 		-0.03230
C 1.0  		0.31628469874160453 		0.2505152615565806  0.09446823434910256 		Uiso   ? 		C 		-0.12965
C 1.0  		0.3174647814431799 		0.7535086858376682  0.09361971727411061 		Uiso   ? 		C 		-0.12965
C 1.0  		0.8218099374823631 		0.2586122288742762  0.09658952703658241 		Uiso   ? 		C 		-0.12965
C 1.0  		0.8177476598974938 		0.751545784669742  0.0943268148366039 		Uiso   ? 		C 		-0.12965
C 1.0  		0.26553705919219794 		0.26376484444008247  0.03365784397468025 		Uiso   ? 		C 		-0.02997
C 1.0  		0.2665527951666124 		0.7643046422612623  0.03266790738718966 		Uiso   ? 		C 		-0.02997
C 1.0  		0.7665560161997969 		0.2632741191481009  0.03365784397468025 		Uiso   ? 		C 		-0.02997
C 1.0  		0.7701633012104458 		0.7660221807831976  0.033092165924685626 		Uiso   ? 		C 		-0.02997
C 1.0  		0.020273309034793255 		0.17101776425556972  0.10832734657397089 		Uiso   ? 		C 		-0.03222
C 1.0  		0.01945764624884272 		0.6695946609088234  0.11002438072395478 		Uiso   ? 		C 		-0.03222
C 1.0  		0.5170183908732173 		0.17175385219354206  0.10903444413646418 		Uiso   ? 		C 		-0.03222
C 1.0  		0.5195215580539385 		0.6722936500147219  0.11002438072395478 		Uiso   ? 		C 		-0.03222
C 1.0  		0.2648009806389128 		0.2622926685641378  0.1086101855989682 		Uiso   ? 		C 		-0.03222
C 1.0  		0.2672888737198975 		0.7657768181372069  0.10931728316146148 		Uiso   ? 		C 		-0.03222
C 1.0  		0.7675045849254115 		0.26474629502404556  0.11016580023645343 		Uiso   ? 		C 		-0.03222
C 1.0  		0.7665991117260123 		0.76356855432329  0.10889302462396552 		Uiso   ? 		C 		-0.03222
C 1.0  		0.2389315722187892 		0.029934242810874475  -0.03959746349962383 		Uiso   ? 		C 		0.57023
C 1.0  		0.23818812460059152 		0.5248306997742663  -0.039738883012122486 		Uiso   ? 		C 		0.57023
C 1.0  		0.7379307120162779 		0.02625380312101286  -0.03988030252462113 		Uiso   ? 		C 		0.57023
C 1.0  		0.7437679832634072 		0.5258121503582295  -0.03945604398712517 		Uiso   ? 		C 		0.57023
C 1.0  		0.40825531806395093 		0.12464422416331339  -0.04186017569960233 		Uiso   ? 		C 		0.57022
C 1.0  		0.41080894983580013 		0.6291098243203456  -0.040728819599613074 		Uiso   ? 		C 		0.57022
C 1.0  		0.9090224390768997 		0.128324663853175  -0.04242585374959695 		Uiso   ? 		C 		0.57022
C 1.0  		0.910233069977948 		0.6254293846304839  -0.04157733667460501 		Uiso   ? 		C 		0.57022
C 1.0  		0.31091220829741106 		0.1972715673765826  -0.040728819599613074 		Uiso   ? 		C 		0.57023
C 1.0  		0.3054546310656431 		0.6963391893218177  -0.040728819599613074 		Uiso   ? 		C 		0.57023
C 1.0  		0.8109344531342267 		0.19776229266856415  -0.04341579033708755 		Uiso   ? 		C 		0.57023
C 1.0  		0.8106423787292318 		0.6978113651977623  -0.03988030252462113 		Uiso   ? 		C 		0.57023
C 1.0  		0.2322675194169021 		0.020855824909215823  0.027859643962235336 		Uiso   ? 		C 		0.65552
C 1.0  		0.23443551666641288 		0.5211502600844048  0.027718224449736678 		Uiso   ? 		C 		0.65552
C 1.0  		0.7361474567010815 		0.021837275493178918  0.02644544883724877 		Uiso   ? 		C 		0.65552
C 1.0  		0.7333448460504529 		0.5177151830405339  0.029273839087221896 		Uiso   ? 		C 		0.65552
C 1.0  		0.18477847369821193 		-0.01717538521935421  0.0500625074245244 		Uiso   ? 		C 		-0.13077
C 1.0  		0.18230455650190525 		0.48360977524781634  0.04610276107456203 		Uiso   ? 		C 		-0.13077
C 1.0  		0.6843757381903685 		-0.01668465992737266  0.04779979522454591 		Uiso   ? 		C 		-0.13077
C 1.0  		0.6797593240250708 		0.48066542349592706  0.04822405376204188 		Uiso   ? 		C 		-0.13077
C 1.0  		0.307245255445752 		0.20438708411031506  0.025879770787254144 		Uiso   ? 		C 		0.65552
C 1.0  		0.30789295214352386 		0.7041907939935225  0.027011126887243397 		Uiso   ? 		C 		0.65552
C 1.0  		0.8094581406967274 		0.2058592599862597  0.025738351274755485 		Uiso   ? 		C 		0.65552
C 1.0  		0.8067124711141151 		0.7010010795956425  0.027011126887243397 		Uiso   ? 		C 		0.65552
C 1.0  		0.05674989046870919 		0.1984983806065365  0.02517267322476086 		Uiso   ? 		C 		0.65552
C 1.0  		0.05676011664949249 		0.6983020904897439  0.02432415614976892 		Uiso   ? 		C 		0.65552
C 1.0  		0.5553087758218025 		0.19776229266856415  0.026304029324750112 		Uiso   ? 		C 		0.65552
C 1.0  		0.556366178764497 		0.7005103543036608  0.026162609812251457 		Uiso   ? 		C 		0.65552
C 1.0  		0.17448423307801536 		0.17175385219354206  0.10889302462396552 		Uiso   ? 		C 		-0.03230
C 1.0  		0.17308804084309276 		0.6695946609088234  0.11143857584894135 		Uiso   ? 		C 		-0.03230
C 1.0  		0.6734352294303354 		0.17052703896358817  0.10846876608646955 		Uiso   ? 		C 		-0.03230
C 1.0  		0.6735111943019833 		0.6713121994307588  0.10917586364896284 		Uiso   ? 		C 		-0.03230
C 1.0  		0.2392980046284401 		0.2733339876337227  0.026586868349747425 		Uiso   ? 		C 		0.65552
C 1.0  		0.23830272101559222 		0.7724016095789578  0.026304029324750112 		Uiso   ? 		C 		0.65552
C 1.0  		0.735804203425991 		0.26891746000588873  0.027718224449736678 		Uiso   ? 		C 		0.65552
C 1.0  		0.7409077172657945 		0.7733830601629209  0.027435385424739365 		Uiso   ? 		C 		0.65552
C 1.0  		0.06162189033255196 		0.20144273235842575  -0.04044598057461576 		Uiso   ? 		C 		0.57021
C 1.0  		0.06451948965845933 		0.707871233683384  -0.04242585374959695 		Uiso   ? 		C 		0.57021
C 1.0  		0.5593572078648709 		0.2058592599862597  -0.039738883012122486 		Uiso   ? 		C 		0.57021
C 1.0  		0.5685461784241039 		0.707871233683384  -0.04143591716210636 		Uiso   ? 		C 		0.57021
C 1.0  		0.15976521047624967 		0.37393267248994017  -0.04002172203711979 		Uiso   ? 		C 		0.57024
C 1.0  		0.1648775219389012 		0.8801158111689078  -0.04016314154961845 		Uiso   ? 		C 		0.57024
C 1.0  		0.6678380101390031 		0.37565021101187557  -0.03931462447462652 		Uiso   ? 		C 		0.57024
C 1.0  		0.6646608837348436 		0.875453920895083  -0.04157733667460501 		Uiso   ? 		C 		0.57024
C 1.0  		0.23520607143212194 		0.28044950436745514  -0.04242585374959695 		Uiso   ? 		C 		0.57024
C 1.0  		0.23761942819939444 		0.7812346648346257  -0.042143014724599644 		Uiso   ? 		C 		0.57024
C 1.0  		0.7301655768093902 		0.2703896358818334  -0.0390317854496292 		Uiso   ? 		C 		0.57024
C 1.0  		0.7368222605463648 		0.7758366866228286  -0.0390317854496292 		Uiso   ? 		C 		0.57024
C 1.0  		0.020365067292200667 		0.26597310825399945  0.033799263487178904 		Uiso   ? 		C 		-0.03035
C 1.0  		0.019279973265904082 		0.7652860928452253  0.032526487874691 		Uiso   ? 		C 		-0.03035
C 1.0  		0.5178286324382141 		0.26474629502404556  0.03365784397468025 		Uiso   ? 		C 		-0.03035
C 1.0  		0.5189517740717731 		0.7684758072431054  0.03097087323720578 		Uiso   ? 		C 		-0.03035
C 1.0  		0.17612721338863513 		0.1724899401315144  0.03464778056217085 		Uiso   ? 		C 		-0.03035
C 1.0  		0.17370143963749707 		0.6708214741387771  0.031677970799699064 		Uiso   ? 		C 		-0.03035
C 1.0  		0.6709334908075498 		0.16807341250368046  0.031677970799699064 		Uiso   ? 		C 		-0.03035
C 1.0  		0.6704858672982419 		0.6673863970949063  0.032526487874691 		Uiso   ? 		C 		-0.03035
C 1.0  		0.01818958731878837 		0.1494258514083816  0.0455370830245674 		Uiso   ? 		C 		-0.13077
C 1.0  		0.01770261798715972 		0.6529100009814507  0.04765837571204725 		Uiso   ? 		C 		-0.13077
C 1.0  		0.5168382830853303 		0.1484444008244185  0.04765837571204725 		Uiso   ? 		C 		-0.13077
C 1.0  		0.5177248628239755 		0.6534007262734322  0.04864831229953784 		Uiso   ? 		C 		-0.13077
C 1.0  		0.29989120603280056 		-0.016439297281381885  0.03365784397468025 		Uiso   ? 		C 		-0.03035
C 1.0  		0.3042257719738868 		0.48606340170772405  0.03139513177470175 		Uiso   ? 		C 		-0.03035
C 1.0  		0.804465554901985 		-0.01619393463539111  0.031112292749704434 		Uiso   ? 		C 		-0.03035
C 1.0  		0.7985589256029737 		0.48410050053979786  0.03464778056217085 		Uiso   ? 		C 		-0.03035
C 1.0  		0.20901871502448308 		0.14010207086073218  0.03563771714966144 		Uiso   ? 		C 		-0.03035
C 1.0  		0.206437392169032 		0.6376975169300226  0.03238506836219234 		Uiso   ? 		C 		-0.03035
C 1.0  		0.7043726525469377 		0.135930905878889  0.031112292749704434 		Uiso   ? 		C 		-0.03035
C 1.0  		0.7008186892432875 		0.6332809893021887  0.03125371226220309 		Uiso   ? 		C 		-0.03035
C 1.0  		0.30172260479316554 		-0.014476396113455688  0.10917586364896284 		Uiso   ? 		C 		-0.03230
C 1.0  		0.3000000402498804 		0.48483658847777017  0.11030721974895209 		Uiso   ? 		C 		-0.03230
C 1.0  		0.7981806601455479 		-0.016439297281381885  0.10719599047398164 		Uiso   ? 		C 		-0.03230
C 1.0  		0.7987056770844388 		0.48311904995583477  0.10945870267396014 		Uiso   ? 		C 		-0.03230
C 1.0  		0.01628425286468979 		0.28118559230542745  0.09220552214912406 		Uiso   ? 		C 		-0.13444
C 1.0  		0.01660557725409917 		0.7824614780645796  0.09277120019911868 		Uiso   ? 		C 		-0.13444
C 1.0  		0.5177393089857552 		0.2887918343311415  0.09729662459907568 		Uiso   ? 		C 		-0.13444
C 1.0  		0.5156399075429794 		0.7856511924624595  0.0953167514240945 		Uiso   ? 		C 		-0.13444
C 1.0  		0.20426939491952117 		0.13740308175483368  0.10889302462396552 		Uiso   ? 		C 		-0.03230
C 1.0  		0.20793362099818657 		0.639415055451958  0.11044863926145074 		Uiso   ? 		C 		-0.03230
C 1.0  		0.7034000120987386 		0.13568554323289825  0.10974154169895746 		Uiso   ? 		C 		-0.03230
C 1.0  		0.7061003953520529 		0.6391696928059672  0.10903444413646418 		Uiso   ? 		C 		-0.03230
C 1.0  		0.23151467355587785 		0.37761311217980176  -0.04115307813710904 		Uiso   ? 		C 		0.57047
C 1.0  		0.23657652042740127 		0.879870448522917  -0.03874894642463189 		Uiso   ? 		C 		0.57047
C 1.0  		0.7347636167999572 		0.37393267248994017  -0.0390317854496292 		Uiso   ? 		C 		0.57047
C 1.0  		0.7368418036360193 		0.87447247031112  -0.0412944976496077 		Uiso   ? 		C 		0.57047
C 1.0  		0.06179417441957044 		0.27063499852782413  -0.03874894642463189 		Uiso   ? 		C 		0.57046
C 1.0  		0.06523943384901781 		0.7773088624987733  -0.042001595212100985 		Uiso   ? 		C 		0.57046
C 1.0  		0.5640991912299538 		0.2782412405535381  -0.04087023911211173 		Uiso   ? 		C 		0.57046
C 1.0  		0.5662736649563531 		0.7738737854549024  -0.04157733667460501 		Uiso   ? 		C 		0.57046
C 1.0  		0.16836001667879968 		0.208803611738149  -0.04115307813710904 		Uiso   ? 		C 		0.57047
C 1.0  		0.1673823283116476 		0.7113063107272549  -0.04242585374959695 		Uiso   ? 		C 		0.57047
C 1.0  		0.6593173992731984 		0.20561389734026891  -0.04115307813710904 		Uiso   ? 		C 		0.57047
C 1.0  		0.6679587097288917 		0.7073805083914025  -0.04087023911211173 		Uiso   ? 		C 		0.57047
C 1.0  		0.0564907177341801 		0.2723525370497596  0.028425322012229963 		Uiso   ? 		C 		0.65729
C 1.0  		0.05644400284694695 		0.7728923348709393  0.02644544883724877 		Uiso   ? 		C 		0.65729
C 1.0  		0.5546334203654623 		0.2733339876337227  0.02715254639974205 		Uiso   ? 		C 		0.65729
C 1.0  		0.5555922152718602 		0.7746098733928748  0.025455512249758172 		Uiso   ? 		C 		0.65729
C 1.0  		0.167041087530583 		0.2002159191284719  0.02729396591224071 		Uiso   ? 		C 		0.65728
C 1.0  		0.16458244443401276 		0.6980567278437532  0.024465575662267574 		Uiso   ? 		C 		0.65728
C 1.0  		0.663981064295641 		0.1975169300225734  0.02686970737474474 		Uiso   ? 		C 		0.65728
C 1.0  		0.66228257147494 		0.6956031013838454  0.025314092737259517 		Uiso   ? 		C 		0.65728
C 1.0  		0.3072108115583617 		0.019874374325252724  0.027859643962235336 		Uiso   ? 		C 		0.65729
C 1.0  		0.30804692670587885 		0.5209048974384141  0.02644544883724877 		Uiso   ? 		C 		0.65729
C 1.0  		0.8099954286354613 		0.020365099617234275  0.02644544883724877 		Uiso   ? 		C 		0.65729
C 1.0  		0.8091316224043422 		0.5213956227303955  0.02715254639974205 		Uiso   ? 		C 		0.65729
C 1.0  		0.2869397913444942 		0.28192168024339975  0.04808263424954322 		Uiso   ? 		C 		-0.13077
C 1.0  		0.28888002432193904 		0.785160467170478  0.046527019612058 		Uiso   ? 		C 		-0.13077
C 1.0  		0.7919655134268815 		0.2873196584551968  0.045254243999570086 		Uiso   ? 		C 		-0.13077
C 1.0  		0.7947381118479486 		0.7871233683384042  0.045395663512068744 		Uiso   ? 		C 		-0.13077
C 1.0  		0.23690074989886067 		0.1312690156050643  0.028849580549725928 		Uiso   ? 		C 		0.65729
C 1.0  		0.23355927676754007 		0.6286190990283639  0.025314092737259517 		Uiso   ? 		C 		0.65729
C 1.0  		0.7338166549413342 		0.12979683972911965  0.02559693176225683 		Uiso   ? 		C 		0.65729
C 1.0  		0.7302538940148362 		0.6254293846304839  0.02559693176225683 		Uiso   ? 		C 		0.65729
C 1.0  		0.15433884671400044 		0.1501619393463539  0.09475107337409987 		Uiso   ? 		C 		-0.13444
C 1.0  		0.15184733427199795 		0.6475120227696536  0.09856940021156359 		Uiso   ? 		C 		-0.13444
C 1.0  		0.6563063724472141 		0.151143389930317  0.09291261971161734 		Uiso   ? 		C 		-0.13444
C 1.0  		0.6529648993158934 		0.6484934733536166  0.09503391239909718 		Uiso   ? 		C 		-0.13444
C 1.0  		0.4120158633579871 		0.19506330356266566  -0.04002172203711979 		Uiso   ? 		C 		0.57045
C 1.0  		0.4084554235774485 		0.6970752772597901  -0.04256727326209561 		Uiso   ? 		C 		0.57045
C 1.0  		0.9106668802704885 		0.20046128177446265  -0.04087023911211173 		Uiso   ? 		C 		0.57045
C 1.0  		0.9103243412743656 		0.6965845519678084  -0.040728819599613074 		Uiso   ? 		C 		0.57045
C 1.0  		0.30483407384041616 		0.02404553930709589  -0.0390317854496292 		Uiso   ? 		C 		0.57048
C 1.0  		0.31167037840428813 		0.5290018647561096  -0.04044598057461576 		Uiso   ? 		C 		0.57048
C 1.0  		0.8076034168177795 		0.02748061635096673  -0.040304561062117106 		Uiso   ? 		C 		0.57048
C 1.0  		0.8068775644452775 		0.5258121503582295  -0.03945604398712517 		Uiso   ? 		C 		0.57048
C 1.0  		0.24247595897055646 		0.1351948179409167  -0.03790042934963995 		Uiso   ? 		C 		0.57047
C 1.0  		0.23953307331535123 		0.6273922857984101  -0.04044598057461576 		Uiso   ? 		C 		0.57047
C 1.0  		0.7407630919373442 		0.12881538914515656  -0.04087023911211173 		Uiso   ? 		C 		0.57047
C 1.0  		0.7423746314604672 		0.6271469231524194  -0.041011658624610384 		Uiso   ? 		C 		0.57047
H 1.0  		0.2998344922827621 		0.20953969967612132  0.501897849857732 		Uiso   ? 		H 		0.03385
H 1.0  		0.29836608488008665 		0.7110609480812642  0.5004836547327455 		Uiso   ? 		H 		0.03385
H 1.0  		0.7958916390130696 		0.20634998527824125  0.500625074245244 		Uiso   ? 		H 		0.03385
H 1.0  		0.7947584015416045 		0.708116596329375  0.5009079132702413 		Uiso   ? 		H 		0.03385
H 1.0  		0.2407238524748115 		0.2613112179801747  0.5027463669327239 		Uiso   ? 		H 		0.03269
H 1.0  		0.24370894106820823 		0.7611149278633821  0.5003422352202467 		Uiso   ? 		H 		0.03269
H 1.0  		0.7451121040402102 		0.26670919619197175  0.5013321718077374 		Uiso   ? 		H 		0.03269
H 1.0  		0.7387781732505804 		0.7606242025714006  0.5016150108327346 		Uiso   ? 		H 		0.03269
H 1.0  		0.165555490509246 		0.18279517126312692  0.4980795230202682 		Uiso   ? 		H 		0.03140
H 1.0  		0.17857392646232947 		0.6975660025517716  0.5009079132702413 		Uiso   ? 		H 		0.03140
H 1.0  		0.6787919588138029 		0.20291490823437042  0.5037363035202145 		Uiso   ? 		H 		0.03140
H 1.0  		0.6786443147443137 		0.6956031013838454  0.49793810350776957 		Uiso   ? 		H 		0.03140
H 1.0  		0.2255688767436021 		0.14132888409068603  0.49906945960775884 		Uiso   ? 		H 		0.03056
H 1.0  		0.23042470991968453 		0.6389243301599765  0.501897849857732 		Uiso   ? 		H 		0.03056
H 1.0  		0.7301760949582188 		0.14206497202865837  0.5002008157077481 		Uiso   ? 		H 		0.03056
H 1.0  		0.7172285759578299 		0.630827362842281  0.4975138449702736 		Uiso   ? 		H 		0.03056
H 1.0  		0.11244736126360963 		0.24487192069879282  0.5226865181950345 		Uiso   ? 		H 		0.42366
H 1.0  		0.113471894860872 		0.747129257041908  0.5198581279450614 		Uiso   ? 		H 		0.42366
H 1.0  		0.6536380796102971 		0.2524781627245068  0.5202823864825573 		Uiso   ? 		H 		0.42366
H 1.0  		0.6145718646590718 		0.7446756305820003  0.5212723230700479 		Uiso   ? 		H 		0.42366
H 1.0  		0.1844361943451007 		0.27750515261556585  0.5228279377075331 		Uiso   ? 		H 		0.39213
H 1.0  		0.18581117197330985 		0.7770634998527824  0.5198581279450614 		Uiso   ? 		H 		0.39213
H 1.0  		0.6843936744130313 		0.3246147806457945  0.5198581279450614 		Uiso   ? 		H 		0.39213
H 1.0  		0.6912466003006197 		0.7854058298164688  0.5219794206325412 		Uiso   ? 		H 		0.39213
H 1.0  		0.13900739923980981 		0.3987142997350084  0.39498469840874767 		Uiso   ? 		H 		0.11390
H 1.0  		0.13738344273282121 		0.8994994602021789  0.39583321548373956 		Uiso   ? 		H 		0.11390
H 1.0  		0.6365367030766875 		0.39846893708901765  0.3937119227962597 		Uiso   ? 		H 		0.11390
H 1.0  		0.6311777338812162 		0.8990087349101974  0.4007828984211926 		Uiso   ? 		H 		0.11390
H 1.0  		0.43277221371145796 		0.09888114633428208  0.39979296183370194 		Uiso   ? 		H 		0.11392
H 1.0  		0.4337134133721601 		0.5967219550495633  0.4005000593961952 		Uiso   ? 		H 		0.11392
H 1.0  		0.9370113926494319 		0.09888114633428208  0.4016314154961845 		Uiso   ? 		H 		0.11392
H 1.0  		0.9332778085188845 		0.5967219550495633  0.4023385130586778 		Uiso   ? 		H 		0.11392
H 1.0  		0.2859279187329635 		0.39846893708901765  0.39880302524621136 		Uiso   ? 		H 		0.11046
H 1.0  		0.2770135576759065 		0.898272646972225  0.394843278896249 		Uiso   ? 		H 		0.11046
H 1.0  		0.7940247901183013 		0.3989596623809991  0.4012071569586886 		Uiso   ? 		H 		0.11046
H 1.0  		0.7910689515093192 		0.900480910786142  0.4024799325711765 		Uiso   ? 		H 		0.11046
H 1.0  		0.42823415021383454 		0.2500245362645991  0.39894444475871005 		Uiso   ? 		H 		0.11039
H 1.0  		0.4312937751209436 		0.7525272352537051  0.39823734719621673 		Uiso   ? 		H 		0.11039
H 1.0  		0.9362541641395007 		0.241436843654922  0.3918734691337772 		Uiso   ? 		H 		0.11039
H 1.0  		0.9318460848156034 		0.7498282461478065  0.39894444475871005 		Uiso   ? 		H 		0.11039
H 1.0  		0.15162155016892442 		0.3189714397880067  0.5229693572200318 		Uiso   ? 		H 		0.40804
H 1.0  		0.15410944324990916 		0.8224555893610757  0.5214137425825466 		Uiso   ? 		H 		0.40804
H 1.0  		0.612941382666273 		0.28412994405731673  0.5175954157450828 		Uiso   ? 		H 		0.40804
H 1.0  		0.6532729297745589 		0.8212287761311219  0.521696581607544 		Uiso   ? 		H 		0.40804
H 1.0  		0.04278382738695673 		0.15654136814211406  0.3968231520712302 		Uiso   ? 		H 		0.11394
H 1.0  		0.03990900156857524 		0.6560997153793307  0.3954089569462436 		Uiso   ? 		H 		0.11394
H 1.0  		0.5380984190870907 		0.15654136814211406  0.3968231520712302 		Uiso   ? 		H 		0.11394
H 1.0  		0.5398215196002871 		0.647021297477672  0.4016314154961845 		Uiso   ? 		H 		0.11394
H 1.0  		0.18668257458731946 		0.004907252919815488  0.399368703296206 		Uiso   ? 		H 		0.11396
H 1.0  		0.18991302269847793 		0.5052016880950045  0.39922728378370737 		Uiso   ? 		H 		0.11396
H 1.0  		0.6956534783845597 		0.004171164981843165  0.3931462447462651 		Uiso   ? 		H 		0.11396
H 1.0  		0.6846470849496397 		0.5044656001570321  0.39922728378370737 		Uiso   ? 		H 		0.11396
H 1.0  		0.295768578652987 		0.31062910982432035  0.4026213520836751 		Uiso   ? 		H 		0.11399
H 1.0  		0.2926636674165802 		0.8067523800176661  0.4007828984211926 		Uiso   ? 		H 		0.11399
H 1.0  		0.7847302157598598 		0.3030228677986064  0.39894444475871005 		Uiso   ? 		H 		0.11399
H 1.0  		0.7827775657985494 		0.7989007753459614  0.3963988935337342 		Uiso   ? 		H 		0.11399
H 1.0  		0.04095119506160069 		0.30842084601040337  0.399368703296206 		Uiso   ? 		H 		0.11039
H 1.0  		0.03786803440181885 		0.7969378741780353  0.3968231520712302 		Uiso   ? 		H 		0.11039
H 1.0  		0.5347848320323164 		0.3037589557365787  0.39753024963372346 		Uiso   ? 		H 		0.11039
H 1.0  		0.5391281955962505 		0.8079791932476201  0.4000758008586993 		Uiso   ? 		H 		0.11039
H 1.0  		0.1311533462074974 		0.1513887525763078  0.4023385130586778 		Uiso   ? 		H 		0.11041
H 1.0  		0.13494672852193215 		0.6489841986455982  0.39753024963372346 		Uiso   ? 		H 		0.11041
H 1.0  		0.6371341134923878 		0.15359701639022477  0.3976716691462221 		Uiso   ? 		H 		0.11041
H 1.0  		0.6364170587427339 		0.653646088919423  0.39611605450873694 		Uiso   ? 		H 		0.11041
H 1.0  		0.27866686114241057 		0.1187555206595348  0.5225450986825358 		Uiso   ? 		H 		0.42286
H 1.0  		0.28200239376675407 		0.6158602414368437  0.5253734889325089 		Uiso   ? 		H 		0.42286
H 1.0  		0.763003692088172 		0.09127490430856806  0.524524971857517 		Uiso   ? 		H 		0.42286
H 1.0  		0.7727662286584991 		0.5748846795563843  0.5222622596575385 		Uiso   ? 		H 		0.42286
H 1.0  		0.33411788483858096 		0.0044165276278339384  0.39753024963372346 		Uiso   ? 		H 		0.11041
H 1.0  		0.33704603236396113 		0.5049563254490136  0.3972474106087262 		Uiso   ? 		H 		0.11041
H 1.0  		0.8449201873961861 		0.0056433408577878106  0.40431838623365896 		Uiso   ? 		H 		0.11041
H 1.0  		0.8381307280624245 		0.5054470507409953  0.39625747402123557 		Uiso   ? 		H 		0.11041
H 1.0  		0.18375780346383336 		0.09765433310432821  0.399368703296206 		Uiso   ? 		H 		0.11046
H 1.0  		0.1884099440904341 		0.596967317695554  0.4007828984211926 		Uiso   ? 		H 		0.11046
H 1.0  		0.6819879953626048 		0.0920109922465404  0.40276277159617374 		Uiso   ? 		H 		0.11046
H 1.0  		0.6907959736914184 		0.6026106585533418  0.39399476182125703 		Uiso   ? 		H 		0.11046
H 1.0  		0.3268109726237851 		0.16022180783197568  0.5239592938075224 		Uiso   ? 		H 		0.41207
H 1.0  		0.3320042968770373 		0.6644420453430171  0.5255149084450076 		Uiso   ? 		H 		0.41207
H 1.0  		0.8247805309050584 		0.1570320934340956  0.5241007133200211 		Uiso   ? 		H 		0.41207
H 1.0  		0.8138375550150433 		0.6519285503974875  0.5207066450200533 		Uiso   ? 		H 		0.41207
H 1.0  		0.3035090091922781 		0.35798410050053986  0.46159328879561484 		Uiso   ? 		H 		0.03478
H 1.0  		0.30369237972307017 		0.8619589753655904  0.4589063180581404 		Uiso   ? 		H 		0.03478
H 1.0  		0.8029289740034968 		0.3653449798802631  0.4596134156206337 		Uiso   ? 		H 		0.03478
H 1.0  		0.8030683564200494 		0.8607321621356365  0.45805780098314847 		Uiso   ? 		H 		0.03478
H 1.0  		0.07768889707400442 		0.3572480125625675  0.45466373268318067 		Uiso   ? 		H 		0.03522
H 1.0  		0.07815049646799044 		0.8622043380115811  0.4587648985456418 		Uiso   ? 		H 		0.03522
H 1.0  		0.5762982470182257 		0.36043772696044757  0.45636076683316457 		Uiso   ? 		H 		0.03522
H 1.0  		0.5754737866094273 		0.8572970850917657  0.45452231317068204 		Uiso   ? 		H 		0.03522
H 1.0  		0.3405414477326031 		0.2510059868485622  0.4000758008586993 		Uiso   ? 		H 		0.11391
H 1.0  		0.34277518367297827 		0.7522818726077142  0.4007828984211926 		Uiso   ? 		H 		0.11391
H 1.0  		0.8337704835317624 		0.24683482186671904  0.39399476182125703 		Uiso   ? 		H 		0.11391
H 1.0  		0.8365518795756774 		0.7483560702718618  0.39753024963372346 		Uiso   ? 		H 		0.11391
H 1.0  		0.08083667651864866 		0.1361762685248798  0.4597548351331323 		Uiso   ? 		H 		0.03248
H 1.0  		0.08000573963296176 		0.6376975169300226  0.4539566351206874 		Uiso   ? 		H 		0.03248
H 1.0  		0.5783002416646621 		0.1349494552949259  0.4638560009955933 		Uiso   ? 		H 		0.03248
H 1.0  		0.5794145856753732 		0.6369614289920503  0.46512877660808133 		Uiso   ? 		H 		0.03248
H 1.0  		0.39663701904262927 		0.2684267347139072  0.4597548351331323 		Uiso   ? 		H 		0.03224
H 1.0  		0.3936723828107991 		0.7682304445971145  0.4591891570831377 		Uiso   ? 		H 		0.03224
H 1.0  		0.895261643086587 		0.26867209735989794  0.45777496195815115 		Uiso   ? 		H 		0.03224
H 1.0  		0.892434960713374 		0.7657768181372069  0.4576335424456525 		Uiso   ? 		H 		0.03224
H 1.0  		0.3167544138045044 		0.0814603984689371  0.5226865181950345 		Uiso   ? 		H 		0.41198
H 1.0  		0.33100380267732565 		0.5876435371479046  0.5232521962450292 		Uiso   ? 		H 		0.41198
H 1.0  		0.8143735280548309 		0.08096967317695555  0.5225450986825358 		Uiso   ? 		H 		0.41198
H 1.0  		0.8488909830505478 		0.6089900873491021  0.5222622596575385 		Uiso   ? 		H 		0.41198
H 1.0  		0.39057086361743204 		0.038276572774560806  0.4637145814830947 		Uiso   ? 		H 		0.03404
H 1.0  		0.3989932074239072 		0.5447050740995192  0.4596134156206337 		Uiso   ? 		H 		0.03404
H 1.0  		0.8955396446318029 		0.04441063892433016  0.45862347903314304 		Uiso   ? 		H 		0.03404
H 1.0  		0.8924347333953959 		0.540533909117676  0.46187612782061216 		Uiso   ? 		H 		0.03404
H 1.0  		0.16815291540239027 		0.043919913632348616  0.45819922049564715 		Uiso   ? 		H 		0.03474
H 1.0  		0.16974038320292895 		0.5434782608695652  0.46173470830811353 		Uiso   ? 		H 		0.03474
H 1.0  		0.6736253684060616 		0.041711649818431645  0.46314890343310006 		Uiso   ? 		H 		0.03474
H 1.0  		0.6667942421040197 		0.5393070958877221  0.4576335424456525 		Uiso   ? 		H 		0.03474
H 1.0  		0.21544328416551828 		0.007606242025714006  0.49963513765775347 		Uiso   ? 		H 		0.03508
H 1.0  		0.2403565274771366 		0.5096182157228384  0.5031706254702198 		Uiso   ? 		H 		0.03508
H 1.0  		0.7251238736474999 		0.0031897143978800667  0.49822094253276694 		Uiso   ? 		H 		0.03508
H 1.0  		0.7299797068235825 		0.5007851604671705  0.5011907522952387 		Uiso   ? 		H 		0.03508
H 1.0  		0.4301288528601155 		0.13396800471096282  0.5021806888827293 		Uiso   ? 		H 		0.02990
H 1.0  		0.4370484913605476 		0.6433408577878104  0.49779668399527094 		Uiso   ? 		H 		0.02990
H 1.0  		0.9340986005577436 		0.13470409264893515  0.49963513765775347 		Uiso   ? 		H 		0.02990
H 1.0  		0.9318107806652227 		0.6303366375502993  0.49963513765775347 		Uiso   ? 		H 		0.02990
H 1.0  		0.040398779007153 		0.18279517126312692  0.4949682937452978 		Uiso   ? 		H 		0.03139
H 1.0  		0.039806725162339296 		0.689469035234076  0.496948166920279 		Uiso   ? 		H 		0.03139
H 1.0  		0.5407344431985542 		0.19113750122681325  0.5016150108327346 		Uiso   ? 		H 		0.03139
H 1.0  		0.5399734003346608 		0.6825988811463344  0.4972310059452763 		Uiso   ? 		H 		0.03139
H 1.0  		0.16908239567430647 		0.3972421238590637  0.49779668399527094 		Uiso   ? 		H 		0.03342
H 1.0  		0.1739470264732368 		0.8965551084502896  0.5002008157077481 		Uiso   ? 		H 		0.03342
H 1.0  		0.668158392931467 		0.40264010207086076  0.4962410693577857 		Uiso   ? 		H 		0.03342
H 1.0  		0.6669242262777457 		0.8965551084502896  0.5007664937577427 		Uiso   ? 		H 		0.03342
H 1.0  		0.24247251791859503 		0.3952792226911375  0.5030292059577213 		Uiso   ? 		H 		0.03458
H 1.0  		0.2473218746177889 		0.8975365590342527  0.5004836547327455 		Uiso   ? 		H 		0.03458
H 1.0  		0.755671474585801 		0.40214937677887924  0.4946854547203005 		Uiso   ? 		H 		0.03458
H 1.0  		0.746281668592957 		0.8980272843262342  0.5000593961952494 		Uiso   ? 		H 		0.03458
H 1.0  		0.038459601285642867 		0.266463833545981  0.49666532789528167 		Uiso   ? 		H 		0.03328
H 1.0  		0.041337284219895076 		0.7630778290313083  0.501897849857732 		Uiso   ? 		H 		0.03328
H 1.0  		0.5409155249084205 		0.26204730591814707  0.4997765571702521 		Uiso   ? 		H 		0.03328
H 1.0  		0.5367416863334776 		0.7628324663853175  0.49921087912025747 		Uiso   ? 		H 		0.03328
H 1.0  		0.4304502095745585 		0.20855824909215823  0.4999179766827508 		Uiso   ? 		H 		0.03210
H 1.0  		0.4370282016668917 		0.7223476297968398  0.49652390838278304 		Uiso   ? 		H 		0.03210
H 1.0  		0.9341769189003843 		0.21518304053390913  0.4989280400952602 		Uiso   ? 		H 		0.03210
H 1.0  		0.9288221050358421 		0.704681519285504  0.5021806888827293 		Uiso   ? 		H 		0.03210
H 1.0  		0.2945377717172719 		0.005152615565806262  0.49949371814525484 		Uiso   ? 		H 		0.03500
H 1.0  		0.30651318623937324 		0.5059377760329767  0.5003422352202467 		Uiso   ? 		H 		0.03500
H 1.0  		0.8037933808545945 		0.0007360879379723231  0.4976552644827723 		Uiso   ? 		H 		0.03500
H 1.0  		0.7936698174544249 		0.5015212484051429  0.4997765571702521 		Uiso   ? 		H 		0.03500
H 1.0  		0.2566314144240335 		0.22597899695750323  0.4382590692333366 		Uiso   ? 		H 		0.13923
H 1.0  		0.25513661415281425 		0.7223476297968398  0.4374105521583446 		Uiso   ? 		H 		0.13923
H 1.0  		0.7604039460490685 		0.22377073314358625  0.4405217814333151 		Uiso   ? 		H 		0.13923
H 1.0  		0.7508738650516478 		0.7159682010010797  0.4341579033708755 		Uiso   ? 		H 		0.13923
H 1.0  		0.20620716076698398 		0.9483266267543431  0.4422188155832989 		Uiso   ? 		H 		0.13936
H 1.0  		0.2137743656223109 		0.4522033565609972  0.44023894240831773 		Uiso   ? 		H 		0.13936
H 1.0  		0.7056752690233712 		0.9532338796741584  0.44207739607080027 		Uiso   ? 		H 		0.13936
H 1.0  		0.7079913159694053 		0.4453332024732555  0.4381176497208379 		Uiso   ? 		H 		0.13936
H 1.0  		-0.01038869332556401 		0.17641574246736677  0.44179455704580295 		Uiso   ? 		H 		0.13934
H 1.0  		0.9877054675327164 		0.679654529394445  0.43981468387082173 		Uiso   ? 		H 		0.13934
H 1.0  		0.48406066358551536 		0.17936009421925608  0.43910758630832847 		Uiso   ? 		H 		0.13934
H 1.0  		0.48738092211012246 		0.6794091667484543  0.43769339118334194 		Uiso   ? 		H 		0.13934
H 1.0  		0.21466247089399226 		0.17518892923741292  0.43981468387082173 		Uiso   ? 		H 		0.13931
H 1.0  		0.2061642925587465 		0.673275100598685  0.44193597655830164 		Uiso   ? 		H 		0.13931
H 1.0  		0.7128380428707066 		0.17666110511335756  0.44122887899580837 		Uiso   ? 		H 		0.13931
H 1.0  		0.70556434097831 		0.6708214741387771  0.4405217814333151 		Uiso   ? 		H 		0.13931
H 1.0  		0.2654285013020178 		0.9537246049661401  0.44278449363329353 		Uiso   ? 		H 		0.13979
H 1.0  		0.2588463538787555 		0.4509765433310433  0.44080462045831237 		Uiso   ? 		H 		0.13979
H 1.0  		0.7577024918986739 		0.9527431543821769  0.43896616679582984 		Uiso   ? 		H 		0.13979
H 1.0  		0.7567436969922758 		0.4514672686230249  0.4359963570333581 		Uiso   ? 		H 		0.13979
H 1.0  		-0.010525673262201898 		0.22671508489547554  0.43783481069584057 		Uiso   ? 		H 		0.13940
H 1.0  		0.9815595005568757 		0.7243105309647659  0.44066320094581374 		Uiso   ? 		H 		0.13940
H 1.0  		0.4833607494456011 		0.23235842575326332  0.4416531375333043 		Uiso   ? 		H 		0.13940
H 1.0  		0.4851343145499256 		0.7267641574246738  0.4386833277708325 		Uiso   ? 		H 		0.13940
H 1.0  		0.259200547613597 		0.9527431543821769  0.1694205759733905 		Uiso   ? 		H 		0.13402
H 1.0  		0.2625332231220697 		0.4536755324369418  0.1661679271859214 		Uiso   ? 		H 		0.13402
H 1.0  		0.7569664133453887 		0.9512709785062322  0.1681478003609026 		Uiso   ? 		H 		0.13402
H 1.0  		0.7570219258554698 		0.452448719206988  0.16871347841089723 		Uiso   ? 		H 		0.13402
H 1.0  		0.2597153383717048 		0.9524977917361862  0.32144655190944627 		Uiso   ? 		H 		0.13359
H 1.0  		0.26230313770404445 		0.450240455393071  0.3213051323969476 		Uiso   ? 		H 		0.13359
H 1.0  		0.7592227924504127 		0.9532338796741584  0.3222950689844382 		Uiso   ? 		H 		0.13359
H 1.0  		0.7591468275787651 		0.452448719206988  0.3230021665469315 		Uiso   ? 		H 		0.13359
H 1.0  		-0.014744928509319688 		0.22082638139169694  0.16956199548588918 		Uiso   ? 		H 		0.13402
H 1.0  		0.9861861409029569 		0.7267641574246738  0.16956199548588918 		Uiso   ? 		H 		0.13402
H 1.0  		0.4874286109193349 		0.22646972224948478  0.16701644426091336 		Uiso   ? 		H 		0.13402
H 1.0  		0.48619676541157325 		0.7267641574246738  0.16673360523591604 		Uiso   ? 		H 		0.13402
H 1.0  		-0.011115000334021893 		0.2242614584355678  0.3222950689844382 		Uiso   ? 		H 		0.13360
H 1.0  		0.9860458658983802 		0.7230837177348122  0.32271932752193416 		Uiso   ? 		H 		0.13360
H 1.0  		0.4892424144340042 		0.2249975463735401  0.32385068362192343 		Uiso   ? 		H 		0.13360
H 1.0  		0.4856643794077697 		0.7235744430267936  0.3215879714219449 		Uiso   ? 		H 		0.13360
H 1.0  		0.11063513229089847 		0.43036608106781826  0.2274025760978397 		Uiso   ? 		H 		0.10546
H 1.0  		0.11212399205514062 		0.9284522524290902  0.22612980048535178 		Uiso   ? 		H 		0.10546
H 1.0  		0.6130188407459234 		0.4296299931298459  0.22584696146035446 		Uiso   ? 		H 		0.10546
H 1.0  		0.6149567525774087 		0.926489351261164  0.222735732185384 		Uiso   ? 		H 		0.10546
H 1.0  		0.11664179818414179 		0.4296299931298459  0.3798528105713914 		Uiso   ? 		H 		0.10668
H 1.0  		0.1129082140535943 		0.9274708018451271  0.3811255861838793 		Uiso   ? 		H 		0.10668
H 1.0  		0.6113341934670236 		0.42668564137795667  0.3775900983714129 		Uiso   ? 		H 		0.10668
H 1.0  		0.6160937397527686 		0.9291883403670625  0.3805599081338847 		Uiso   ? 		H 		0.10668
H 1.0  		0.46128707681090536 		0.07728923348709393  0.2254227029228585 		Uiso   ? 		H 		0.10546
H 1.0  		0.46583413292432096 		0.5797919324761999  0.22584696146035446 		Uiso   ? 		H 		0.10546
H 1.0  		0.964113360856285 		0.07998822259299246  0.22641263951034907 		Uiso   ? 		H 		0.10546
H 1.0  		0.9640666459690518 		0.5805280204141722  0.2269783175603437 		Uiso   ? 		H 		0.10546
H 1.0  		0.46410639011920574 		0.07655314554912161  0.3821155227713699 		Uiso   ? 		H 		0.10666
H 1.0  		0.46835762212373167 		0.5746393169103936  0.38140842520887663 		Uiso   ? 		H 		0.10666
H 1.0  		0.9648494394095701 		0.0814603984689371  0.38070132764638337 		Uiso   ? 		H 		0.10666
H 1.0  		0.9652429789667325 		0.5790558445382276  0.37872145447140215 		Uiso   ? 		H 		0.10666
H 1.0  		0.3409832767189566 		0.43208361958975366  0.22612980048535178 		Uiso   ? 		H 		0.10679
H 1.0  		0.33185410434361073 		0.9255079006772009  0.22612980048535178 		Uiso   ? 		H 		0.10679
H 1.0  		0.8364117505551234 		0.430611443713809  0.22683689804784507 		Uiso   ? 		H 		0.10679
H 1.0  		0.836724277321685 		0.9301697909510257  0.22315999072287998 		Uiso   ? 		H 		0.10679
H 1.0  		0.3353511265792444 		0.42889390519187365  0.381267005696378 		Uiso   ? 		H 		0.10709
H 1.0  		0.3300643725515259 		0.9257532633231917  0.38324687887135916 		Uiso   ? 		H 		0.10709
H 1.0  		0.839958344793861 		0.4296299931298459  0.3811255861838793 		Uiso   ? 		H 		0.10709
H 1.0  		0.8343123491123479 		0.9274708018451271  0.38098416667138063 		Uiso   ? 		H 		0.10709
H 1.0  		0.46346034929734725 		0.3000785160467171  0.22669547853534638 		Uiso   ? 		H 		0.10679
H 1.0  		0.4652209614478947 		0.8038080282657768  0.22726115658534102 		Uiso   ? 		H 		0.10679
H 1.0  		0.9634913917570108 		0.302286779860634  0.2269783175603437 		Uiso   ? 		H 		0.10679
H 1.0  		0.9655302327707522 		0.806997742663657  0.22726115658534102 		Uiso   ? 		H 		0.10679
H 1.0  		0.45993782678119394 		0.2998331534007263  0.3805599081338847 		Uiso   ? 		H 		0.10709
H 1.0  		0.4653765105522078 		0.8045441162037492  0.38070132764638337 		Uiso   ? 		H 		0.10709
H 1.0  		0.9666218032739373 		0.3030228677986064  0.37971139105889273 		Uiso   ? 		H 		0.10709
H 1.0  		0.963190519729168 		0.8006183138678968  0.3811255861838793 		Uiso   ? 		H 		0.10709
H 1.0  		0.1880473260347453 		0.004661890273824713  0.24437291759767846 		Uiso   ? 		H 		0.11409
H 1.0  		0.1895866503901154 		0.506673863970949  0.2429587224726919 		Uiso   ? 		H 		0.11409
H 1.0  		0.6914277466605534 		0.0029443517518892926  0.2384332980727349 		Uiso   ? 		H 		0.11409
H 1.0  		0.6844521900230058 		0.5079006772009029  0.24635279077265965 		Uiso   ? 		H 		0.11409
H 1.0  		0.2865569649291049 		0.30793012071842185  0.20760384434802776 		Uiso   ? 		H 		0.11405
H 1.0  		0.2807618966201671 		0.800372951221906  0.21368488338546998 		Uiso   ? 		H 		0.11405
H 1.0  		0.7862921832798788 		0.3057218569045049  0.20873520044801702 		Uiso   ? 		H 		0.11405
H 1.0  		0.7874065272905898 		0.8077338306016292  0.2068967467855345 		Uiso   ? 		H 		0.11405
H 1.0  		0.1252043356612383 		0.4004318382569438  0.24819124443514218 		Uiso   ? 		H 		0.11410
H 1.0  		0.1329452208364854 		0.898272646972225  0.2449385956476731 		Uiso   ? 		H 		0.11410
H 1.0  		0.629811553875855 		0.40116792619491615  0.24649421028515833 		Uiso   ? 		H 		0.11410
H 1.0  		0.6278348321919602 		0.898272646972225  0.24606995174766233 		Uiso   ? 		H 		0.11410
H 1.0  		0.4323055663985188 		0.09667288252036511  0.24508001516017175 		Uiso   ? 		H 		0.11409
H 1.0  		0.4336411982044073 		0.6004023947394249  0.24267588344769458 		Uiso   ? 		H 		0.11409
H 1.0  		0.9358174644060557 		0.09691824516635589  0.245787112722665 		Uiso   ? 		H 		0.11409
H 1.0  		0.9321584165892205 		0.5974580429875357  0.2452214346726704 		Uiso   ? 		H 		0.11409
H 1.0  		0.13599966748176423 		0.3982235744430268  0.21099791264799553 		Uiso   ? 		H 		0.11405
H 1.0  		0.13104160690836764 		0.8999901854941604  0.20661390776053717 		Uiso   ? 		H 		0.11405
H 1.0  		0.6348608534206357 		0.3972421238590637  0.20958371752300894 		Uiso   ? 		H 		0.11405
H 1.0  		0.6368251581206649 		0.8992540975561881  0.20732100532303044 		Uiso   ? 		H 		0.11405
H 1.0  		0.12983745248420786 		0.3982235744430268  0.3592055617465876 		Uiso   ? 		H 		0.11540
H 1.0  		0.12881809714877568 		0.8985180096182158  0.3603369178465768 		Uiso   ? 		H 		0.11540
H 1.0  		0.6330711216285508 		0.39748748650505455  0.3613268544340674 		Uiso   ? 		H 		0.11540
H 1.0  		0.6246891465752974 		0.900480910786142  0.35722568857160636 		Uiso   ? 		H 		0.11540
H 1.0  		0.2872337812684142 		0.3037589557365787  0.3651451812715311 		Uiso   ? 		H 		0.11545
H 1.0  		0.2874652952443749 		0.8052802041417215  0.36189253248406206 		Uiso   ? 		H 		0.11545
H 1.0  		0.7856130457946102 		0.30351359309058795  0.3637309861465446 		Uiso   ? 		H 		0.11545
H 1.0  		0.7845038800457294 		0.8040533909117676  0.3642966641965392 		Uiso   ? 		H 		0.11545
H 1.0  		0.4328074042028496 		0.10575130042202376  0.21198784923548614 		Uiso   ? 		H 		0.11404
H 1.0  		0.4335513877909586 		0.6006477573854156  0.20831094191052107 		Uiso   ? 		H 		0.11404
H 1.0  		0.9330726874114675 		0.10035332221022672  0.21057365411049958 		Uiso   ? 		H 		0.11404
H 1.0  		0.9334028094237248 		0.6033467464913143  0.2107150736229982 		Uiso   ? 		H 		0.11404
H 1.0  		0.4352716311882843 		0.09495534399842968  0.3592055617465876 		Uiso   ? 		H 		0.11542
H 1.0  		0.4348175312020879 		0.5989302188634802  0.3650037617590325 		Uiso   ? 		H 		0.11542
H 1.0  		0.9342642945088846 		0.09593679458239279  0.3606197568715741 		Uiso   ? 		H 		0.11542
H 1.0  		0.931718162144825 		0.6004023947394249  0.36175111297156337 		Uiso   ? 		H 		0.11542
H 1.0  		0.28182486676783813 		0.39748748650505455  0.24182736637270263 		Uiso   ? 		H 		0.11110
H 1.0  		0.28371463515415496 		0.8968004710962804  0.24465575662267577 		Uiso   ? 		H 		0.11110
H 1.0  		0.7910915946739681 		0.40116792619491615  0.24635279077265965 		Uiso   ? 		H 		0.11110
H 1.0  		0.7882649123007552 		0.898272646972225  0.24225162491019864 		Uiso   ? 		H 		0.11110
H 1.0  		0.4336033455900893 		0.24928844832662678  0.24338298101018788 		Uiso   ? 		H 		0.11110
H 1.0  		0.43376264439829715 		0.7544901364216313  0.2472013078476516 		Uiso   ? 		H 		0.11110
H 1.0  		0.9341292624162053 		0.241436843654922  0.23970607368522281 		Uiso   ? 		H 		0.11110
H 1.0  		0.9340061770302903 		0.7566984002355482  0.245787112722665 		Uiso   ? 		H 		0.11110
H 1.0  		0.29030919956128287 		0.4004318382569438  0.2061896492230412 		Uiso   ? 		H 		0.11105
H 1.0  		0.28335539350036026 		0.8977819216802434  0.20972513703550763 		Uiso   ? 		H 		0.11105
H 1.0  		0.7796411970907577 		0.3999411129649622  0.21212926874798477 		Uiso   ? 		H 		0.11105
H 1.0  		0.7849965469252116 		0.9002355481401513  0.2084523614230197 		Uiso   ? 		H 		0.11105
H 1.0  		0.2852006378025263 		0.3987142997350084  0.3625996300465553 		Uiso   ? 		H 		0.11186
H 1.0  		0.2861089681177963 		0.896064383158308  0.3607611763840728 		Uiso   ? 		H 		0.11186
H 1.0  		0.7890805750867057 		0.3996957503189715  0.3607611763840728 		Uiso   ? 		H 		0.11186
H 1.0  		0.7839910371315801 		0.8994994602021789  0.36542802029652843 		Uiso   ? 		H 		0.11186
H 1.0  		0.43394731314414753 		0.25125134949455297  0.2084523614230197 		Uiso   ? 		H 		0.11106
H 1.0  		0.43656436246090163 		0.750318971439788  0.2126949467979794 		Uiso   ? 		H 		0.11106
H 1.0  		0.9329247023650113 		0.25517715183040535  0.20562397117304657 		Uiso   ? 		H 		0.11106
H 1.0  		0.9318965494067313 		0.7537540484836589  0.2071795858105318 		Uiso   ? 		H 		0.11106
H 1.0  		0.4332288298365582 		0.25321425066247916  0.36316530809654995 		Uiso   ? 		H 		0.11185
H 1.0  		0.43285574264096244 		0.7552262243596035  0.3587813032090916 		Uiso   ? 		H 		0.11185
H 1.0  		0.9352861659832203 		0.25395033860045146  0.3584984641840943 		Uiso   ? 		H 		0.11185
H 1.0  		0.9335196133256959 		0.7446756305820003  0.3682564105465016 		Uiso   ? 		H 		0.11185
H 1.0  		0.03997746703243336 		0.14795367553243696  0.24564569321016638 		Uiso   ? 		H 		0.11410
H 1.0  		0.03890996825183263 		0.6507017371675337  0.24649421028515833 		Uiso   ? 		H 		0.11410
H 1.0  		0.5397543523514874 		0.14795367553243696  0.24663562979765696 		Uiso   ? 		H 		0.11410
H 1.0  		0.5395632071287484 		0.6558543527333399  0.24239304442269727 		Uiso   ? 		H 		0.11410
H 1.0  		0.29016929785870693 		0.30793012071842185  0.245787112722665 		Uiso   ? 		H 		0.11410
H 1.0  		0.29070311242044583 		0.8092060064775739  0.24635279077265965 		Uiso   ? 		H 		0.11410
H 1.0  		0.7886143010757672 		0.30866620865639416  0.2452214346726704 		Uiso   ? 		H 		0.11410
H 1.0  		0.7891393180146583 		0.8082245558936109  0.2472013078476516 		Uiso   ? 		H 		0.11410
H 1.0  		0.03849992102994289 		0.30989302188634804  0.24663562979765696 		Uiso   ? 		H 		0.11110
H 1.0  		0.03802590465209127 		0.8040533909117676  0.24211020539769995 		Uiso   ? 		H 		0.11110
H 1.0  		0.5406928898892631 		0.30155069192266176  0.2429587224726919 		Uiso   ? 		H 		0.11110
H 1.0  		0.5401249077670337 		0.806997742663657  0.24663562979765696 		Uiso   ? 		H 		0.11110
H 1.0  		0.12926500637911595 		0.1501619393463539  0.24635279077265965 		Uiso   ? 		H 		0.11110
H 1.0  		0.12752484659013502 		0.646039846893709  0.24550427369766772 		Uiso   ? 		H 		0.11110
H 1.0  		0.6331537412861433 		0.15286092845225244  0.2435244005226865 		Uiso   ? 		H 		0.11110
H 1.0  		0.6329186079491648 		0.6521739130434783  0.24211020539769995 		Uiso   ? 		H 		0.11110
H 1.0  		0.03996095936770595 		0.3047404063205418  0.20887661996051568 		Uiso   ? 		H 		0.11105
H 1.0  		0.03783980734830544 		0.8092060064775739  0.20675532727303583 		Uiso   ? 		H 		0.11105
H 1.0  		0.5396961777184799 		0.30253214250662486  0.20887661996051568 		Uiso   ? 		H 		0.11105
H 1.0  		0.5418248291456699 		0.806997742663657  0.20831094191052107 		Uiso   ? 		H 		0.11105
H 1.0  		0.04077805071159188 		0.30424968102856026  0.3635895666340459 		Uiso   ? 		H 		0.11185
H 1.0  		0.039057807314266224 		0.8099420944155463  0.35821562515909694 		Uiso   ? 		H 		0.11185
H 1.0  		0.5401146815862503 		0.30719403278044954  0.3637309861465446 		Uiso   ? 		H 		0.11185
H 1.0  		0.5381379599023557 		0.8042987535577585  0.3628824690715526 		Uiso   ? 		H 		0.11185
H 1.0  		0.1279067314085786 		0.14574541171851998  0.2049168736105533 		Uiso   ? 		H 		0.11106
H 1.0  		0.13822621266628315 		0.6551182647953676  0.21255352728548074 		Uiso   ? 		H 		0.11106
H 1.0  		0.6337583424576997 		0.1523702031602709  0.20802810288552376 		Uiso   ? 		H 		0.11106
H 1.0  		0.6275318173272143 		0.6494749239375798  0.2049168736105533 		Uiso   ? 		H 		0.11106
H 1.0  		0.13694104545152272 		0.15531455491216017  0.3648623422465338 		Uiso   ? 		H 		0.11185
H 1.0  		0.12703412755461152 		0.6450583963097458  0.3616096934590647 		Uiso   ? 		H 		0.11185
H 1.0  		0.6288687473481611 		0.14599077436451074  0.3635895666340459 		Uiso   ? 		H 		0.11185
H 1.0  		0.630808980325606 		0.649229561291589  0.3620339519965607 		Uiso   ? 		H 		0.11185
H 1.0  		0.33541689759514237 		0.0031897143978800667  0.21085649313549687 		Uiso   ? 		H 		0.11105
H 1.0  		0.3419749732958205 		0.5071645892629307  0.20802810288552376 		Uiso   ? 		H 		0.11105
H 1.0  		0.836887227815944 		0.00785160467170478  0.20873520044801702 		Uiso   ? 		H 		0.11105
H 1.0  		0.8445864460229112 		0.5034841495730691  0.20505829312305193 		Uiso   ? 		H 		0.11105
H 1.0  		0.34333597503935154 		0.002453626459907744  0.3637309861465446 		Uiso   ? 		H 		0.11183
H 1.0  		0.3367108624327507 		0.5047109628030229  0.36415524468404054 		Uiso   ? 		H 		0.11183
H 1.0  		0.83265269846909 		0.004907252919815488  0.3669836349340137 		Uiso   ? 		H 		0.11183
H 1.0  		0.8389894863745906 		0.5071645892629307  0.3633067276090486 		Uiso   ? 		H 		0.11183
H 1.0  		0.18356938501408815 		0.09642751987437434  0.20548255166054794 		Uiso   ? 		H 		0.11105
H 1.0  		0.18943304912976108 		0.6011384826773973  0.20887661996051568 		Uiso   ? 		H 		0.11105
H 1.0  		0.6799529040527581 		0.09176562960054963  0.20519971263555062 		Uiso   ? 		H 		0.11105
H 1.0  		0.6838472155494488 		0.5972126803415448  0.20505829312305193 		Uiso   ? 		H 		0.11105
H 1.0  		0.1894316205718257 		0.10305231131612523  0.3662765373715204 		Uiso   ? 		H 		0.11188
H 1.0  		0.18601561112679285 		0.5977034056335264  0.3628824690715526 		Uiso   ? 		H 		0.11188
H 1.0  		0.6891668389225996 		0.10084404750220827  0.3648623422465338 		Uiso   ? 		H 		0.11188
H 1.0  		0.6791219671670712 		0.5932868780056925  0.3563771714966144 		Uiso   ? 		H 		0.11188
H 1.0  		0.3399120605594947 		0.0036804396898616155  0.2459285322351637 		Uiso   ? 		H 		0.11110
H 1.0  		0.33941629360501824 		0.5054470507409953  0.2439486590601825 		Uiso   ? 		H 		0.11110
H 1.0  		0.8436123770167768 		0.005152615565806262  0.24635279077265965 		Uiso   ? 		H 		0.11110
H 1.0  		0.8357363950987833 		0.5061831386789676  0.24182736637270263 		Uiso   ? 		H 		0.11110
H 1.0  		0.18634935250006782 		0.09986259691824517  0.2429587224726919 		Uiso   ? 		H 		0.11110
H 1.0  		0.18969600389321864 		0.6050642850132497  0.241685946860204 		Uiso   ? 		H 		0.11110
H 1.0  		0.6855457083701497 		0.09912650898027285  0.24437291759767846 		Uiso   ? 		H 		0.11110
H 1.0  		0.6905353400739203 		0.6050642850132497  0.23956465417272413 		Uiso   ? 		H 		0.11110
H 1.0  		0.3435996440817767 		0.25542251447639613  0.24762556638514754 		Uiso   ? 		H 		0.11409
H 1.0  		0.3461597523305143 		0.7552262243596035  0.24635279077265965 		Uiso   ? 		H 		0.11409
H 1.0  		0.8421913987803021 		0.25517715183040535  0.24380723954768382 		Uiso   ? 		H 		0.11409
H 1.0  		0.839879507165197 		0.7520365099617234  0.2436658200351852 		Uiso   ? 		H 		0.11409
H 1.0  		0.30512791778031356 		0.35994700166846605  0.14806622958609336 		Uiso   ? 		H 		0.02802
H 1.0  		0.3033724838915962 		0.8587692609677103  0.14707629299860278 		Uiso   ? 		H 		0.02802
H 1.0  		0.8045937048907414 		0.3584748257925214  0.15202597593605574 		Uiso   ? 		H 		0.02802
H 1.0  		0.8036488858690215 		0.8614682500736089  0.14226802957364845 		Uiso   ? 		H 		0.02802
H 1.0  		0.3023984148854618 		0.36043772696044757  0.30079930308464237 		Uiso   ? 		H 		0.02805
H 1.0  		0.30004485630207667 		0.8550888212778487  0.3077288591970766 		Uiso   ? 		H 		0.02805
H 1.0  		0.8029354504803854 		0.36068308960643836  0.29980936649715184 		Uiso   ? 		H 		0.02805
H 1.0  		0.8037627680050545 		0.8599960741976642  0.305890405534594 		Uiso   ? 		H 		0.02805
H 1.0  		0.07960362977092958 		0.36362744135832764  0.14594493689861354 		Uiso   ? 		H 		0.02802
H 1.0  		0.07644177746650632 		0.8604867994896458  0.14552067836111754 		Uiso   ? 		H 		0.02802
H 1.0  		0.577555592806507 		0.35700264991657676  0.1551372052110262 		Uiso   ? 		H 		0.02802
H 1.0  		0.578834283544379 		0.8614682500736089  0.1538644295985383 		Uiso   ? 		H 		0.02802
H 1.0  		0.08153131542163176 		0.36068308960643836  0.3032034347971196 		Uiso   ? 		H 		0.02805
H 1.0  		0.07725886881039229 		0.8599960741976642  0.30560756650959675 		Uiso   ? 		H 		0.02805
H 1.0  		0.5794615278805844 		0.36166454019040145  0.3091430543220631 		Uiso   ? 		H 		0.02805
H 1.0  		0.5757848848180533 		0.8587692609677103  0.3003750445471465 		Uiso   ? 		H 		0.02805
H 1.0  		0.07910388579458023 		0.13568554323289825  0.15018752227357324 		Uiso   ? 		H 		0.02802
H 1.0  		0.08020943218244342 		0.6359799784080872  0.14792481007359473 		Uiso   ? 		H 		0.02802
H 1.0  		0.5750383527660069 		0.1322504661890274  0.15499578569852757 		Uiso   ? 		H 		0.02802
H 1.0  		0.5782294550548446 		0.6367160663460596  0.14651061494860815 		Uiso   ? 		H 		0.02802
H 1.0  		0.077134533175598 		0.13642163117087058  0.3091430543220631 		Uiso   ? 		H 		0.02805
H 1.0  		0.07448747162928249 		0.633035626656198  0.30079930308464237 		Uiso   ? 		H 		0.02805
H 1.0  		0.5780460845240525 		0.13274119148100896  0.3049004689471035 		Uiso   ? 		H 		0.02805
H 1.0  		0.5796752192928714 		0.6345078025321426  0.30362769333461553 		Uiso   ? 		H 		0.02805
H 1.0  		0.39554169883554946 		0.26793600942192564  0.15414726862353562 		Uiso   ? 		H 		0.02802
H 1.0  		0.3965991017782439 		0.7706840710570223  0.14976326373607723 		Uiso   ? 		H 		0.02802
H 1.0  		0.8944598258424374 		0.2662184708999902  0.15499578569852757 		Uiso   ? 		H 		0.02802
H 1.0  		0.8947330067866783 		0.76994798311905  0.14410648323613098 		Uiso   ? 		H 		0.02802
H 1.0  		0.39487135897312864 		0.2674452841299441  0.30433479089710885 		Uiso   ? 		H 		0.02805
H 1.0  		0.3963032776693543 		0.7662675434291885  0.30362769333461553 		Uiso   ? 		H 		0.02805
H 1.0  		0.8937654142574323 		0.26695455883796254  0.3005164640596451 		Uiso   ? 		H 		0.02805
H 1.0  		0.8970463269597186 		0.7711747963490039  0.3032034347971196 		Uiso   ? 		H 		0.02805
H 1.0  		0.3939313605523838 		0.042447737756403967  0.1528744930110477 		Uiso   ? 		H 		0.02803
H 1.0  		0.39519245604456 		0.5434782608695652  0.14849048812358934 		Uiso   ? 		H 		0.02803
H 1.0  		0.8983436838403668 		0.046618902738247134  0.14297512713614172 		Uiso   ? 		H 		0.02803
H 1.0  		0.8953373806402566 		0.5442143488075376  0.1443893222611283 		Uiso   ? 		H 		0.02803
H 1.0  		0.396014595307399 		0.040239473942487  0.3027791762596236 		Uiso   ? 		H 		0.02805
H 1.0  		0.3950040375948148 		0.5422514476396114  0.2991022689346586 		Uiso   ? 		H 		0.02805
H 1.0  		0.8982626710497661 		0.04858180390617333  0.3085773762720685 		Uiso   ? 		H 		0.02805
H 1.0  		0.8947744464369802 		0.5469133379134361  0.3061732445595914 		Uiso   ? 		H 		0.02805
H 1.0  		0.16979589571301001 		0.04465600157032094  0.15527862472352486 		Uiso   ? 		H 		0.02802
H 1.0  		0.17170325934502273 		0.5474040632054176  0.13972247834867263 		Uiso   ? 		H 		0.02802
H 1.0  		0.6701357152353403 		0.041957012464422426  0.14849048812358934 		Uiso   ? 		H 		0.02802
H 1.0  		0.6709959021054417 		0.5417607223476298  0.14594493689861354 		Uiso   ? 		H 		0.02802
H 1.0  		0.16812004605695807 		0.04342918834036706  0.3085773762720685 		Uiso   ? 		H 		0.02805
H 1.0  		0.1707699647191444 		0.5429875355775837  0.3032034347971196 		Uiso   ? 		H 		0.02805
H 1.0  		0.6684029245112719 		0.04146628717244087  0.2986780103971626 		Uiso   ? 		H 		0.02805
H 1.0  		0.6685117587283518 		0.542742172931593  0.3074460201720793 		Uiso   ? 		H 		0.02805
H 1.0  		0.3371847328265798 		0.3246147806457945  0.22726115658534102 		Uiso   ? 		H 		0.10546
H 1.0  		0.3408489589052452 		0.826626754342919  0.22810967366033297 		Uiso   ? 		H 		0.10546
H 1.0  		0.8339867557330203 		0.3246147806457945  0.22386708828537327 		Uiso   ? 		H 		0.10546
H 1.0  		0.8382884523286743 		0.826626754342919  0.22853393219782894 		Uiso   ? 		H 		0.10546
H 1.0  		0.34095261486049483 		0.32535086858376683  0.381267005696378 		Uiso   ? 		H 		0.10670
H 1.0  		0.33784770362408806 		0.8214741387771126  0.37971139105889273 		Uiso   ? 		H 		0.10670
H 1.0  		0.8371083696270989 		0.3236333300618314  0.38154984472137526 		Uiso   ? 		H 		0.10670
H 1.0  		0.8377079228797022 		0.8258906664049466  0.3811255861838793 		Uiso   ? 		H 		0.10670
H 1.0  		0.18473729369092154 		0.0044165276278339384  0.21029081508550226 		Uiso   ? 		H 		0.11404
H 1.0  		0.1869293626630166 		0.5034841495730691  0.20972513703550763 		Uiso   ? 		H 		0.11404
H 1.0  		0.6880454991489766 		0.0063794287957601335  0.20774526386052644 		Uiso   ? 		H 		0.11404
H 1.0  		0.6855211173615421 		0.5032387869270784  0.20633106873553986 		Uiso   ? 		H 		0.11404
H 1.0  		0.008961725573190554 		0.10207086073216214  0.22358424926037596 		Uiso   ? 		H 		0.10546
H 1.0  		0.006978527412407287 		0.6038374717832957  0.22528128341035983 		Uiso   ? 		H 		0.10546
H 1.0  		0.5057044862656552 		0.09642751987437434  0.22485702487286388 		Uiso   ? 		H 		0.10546
H 1.0  		0.5092483537313991 		0.604573559721268  0.22485702487286388 		Uiso   ? 		H 		0.10546
H 1.0  		0.005699836674535344 		0.09937187162626364  0.3795699715463941 		Uiso   ? 		H 		0.10665
H 1.0  		0.006209579513689889 		0.6018745706153695  0.37971139105889273 		Uiso   ? 		H 		0.10665
H 1.0  		0.5057549508567832 		0.10035332221022672  0.3833882983838578 		Uiso   ? 		H 		0.10665
H 1.0  		0.5099163724478606 		0.5986848562174895  0.38282262033386316 		Uiso   ? 		H 		0.10665
H 1.0  		0.35887583868889794 		0.30424968102856026  0.2249984443853625 		Uiso   ? 		H 		0.10546
H 1.0  		0.35982583597244794 		0.8038080282657768  0.22584696146035446 		Uiso   ? 		H 		0.10546
H 1.0  		0.8614655608393638 		0.30817548336441264  0.22598838097285312 		Uiso   ? 		H 		0.10546
H 1.0  		0.8608711858485907 		0.8084699185396016  0.2269783175603437 		Uiso   ? 		H 		0.10546
H 1.0  		0.36251224334108423 		0.3030228677986064  0.3792871325213968 		Uiso   ? 		H 		0.10669
H 1.0  		0.3591379008643314 		0.7998822259299244  0.3798528105713914 		Uiso   ? 		H 		0.10669
H 1.0  		0.8586679981076883 		0.3013053292766709  0.38197410325887127 		Uiso   ? 		H 		0.10669
H 1.0  		0.858899512083649 		0.8028265776818138  0.38197410325887127 		Uiso   ? 		H 		0.10669
H 1.0  		0.18884034565604696 		0.005397978211797036  0.36316530809654995 		Uiso   ? 		H 		0.11542
H 1.0  		0.1927411336296262 		0.5061831386789676  0.3635895666340459 		Uiso   ? 		H 		0.11542
H 1.0  		0.6854956170810222 		0.0063794287957601335  0.3634481471215472 		Uiso   ? 		H 		0.11542
H 1.0  		0.6820643335362531 		0.5039748748650505  0.36019549833407816 		Uiso   ? 		H 		0.11542
H 1.0  		0.1364422753971527 		-0.025026989891058986  0.2271197370728424 		Uiso   ? 		H 		0.10546
H 1.0  		0.1346299004404189 		0.47453135734615765  0.22584696146035446 		Uiso   ? 		H 		0.10546
H 1.0  		0.6338401018523019 		-0.027235253704975957  0.22528128341035983 		Uiso   ? 		H 		0.10546
H 1.0  		0.6363761383784551 		0.47379526940818534  0.2251398638978612 		Uiso   ? 		H 		0.10546
H 1.0  		0.13650801408801708 		-0.02404553930709589  0.38027706910888737 		Uiso   ? 		H 		0.10672
H 1.0  		0.138233435747173 		0.47281381882422224  0.38027706910888737 		Uiso   ? 		H 		0.10672
H 1.0  		0.634567382782739 		-0.02748061635096673  0.38268120082136453 		Uiso   ? 		H 		0.10672
H 1.0  		0.6290111975146745 		0.4701148297183237  0.3775900983714129 		Uiso   ? 		H 		0.10672
H 1.0  		0.13271153169858796 		0.07630778290313084  0.2254227029228585 		Uiso   ? 		H 		0.10679
H 1.0  		0.1329999867425652 		0.5770929433703014  0.22641263951034907 		Uiso   ? 		H 		0.10679
H 1.0  		0.6346461880863694 		0.07679850819511239  0.22655405902284775 		Uiso   ? 		H 		0.10679
H 1.0  		0.6367748395135595 		0.5812641083521446  0.22641263951034907 		Uiso   ? 		H 		0.10679
H 1.0  		0.13419248642800619 		0.08096967317695555  0.38070132764638337 		Uiso   ? 		H 		0.10712
H 1.0  		0.13666926074018365 		0.5763568554323291  0.381267005696378 		Uiso   ? 		H 		0.10712
H 1.0  		0.6359539984657787 		0.07728923348709393  0.38154984472137526 		Uiso   ? 		H 		0.10712
H 1.0  		0.6339291333367154 		0.5768475807243105  0.37900429349639947 		Uiso   ? 		H 		0.10712
H 1.0  		0.36032876135774716 		0.9731082539994113  0.2251398638978612 		Uiso   ? 		H 		0.10679
H 1.0  		0.35977087507342387 		0.473059181470213  0.2251398638978612 		Uiso   ? 		H 		0.10679
H 1.0  		0.8602699934039619 		0.9755618804593189  0.22528128341035983 		Uiso   ? 		H 		0.10679
H 1.0  		0.8616157210477566 		0.47379526940818534  0.22627121999785044 		Uiso   ? 		H 		0.10679
H 1.0  		0.35820385963445184 		0.9731082539994113  0.38239836179636727 		Uiso   ? 		H 		0.10708
H 1.0  		0.35930422776048476 		0.47085091765629605  0.3811255861838793 		Uiso   ? 		H 		0.10708
H 1.0  		0.8590103264697212 		0.9726175287074297  0.38070132764638337 		Uiso   ? 		H 		0.10708
H 1.0  		0.8600296818051534 		0.4723230935322407  0.38027706910888737 		Uiso   ? 		H 		0.10708
H 1.0  		0.11160095528524192 		0.09740897045833743  0.22584696146035446 		Uiso   ? 		H 		0.10679
H 1.0  		0.11274816864138507 		0.5999116694474433  0.22584696146035446 		Uiso   ? 		H 		0.10679
H 1.0  		0.6109769319822211 		0.09618215722838357  0.22612980048535178 		Uiso   ? 		H 		0.10679
H 1.0  		0.6134976944086381 		0.6001570320934342  0.22612980048535178 		Uiso   ? 		H 		0.10679
H 1.0  		0.11521560936080333 		0.10378839925409757  0.3816912642338739 		Uiso   ? 		H 		0.10710
H 1.0  		0.11537906349994026 		0.5979487682795172  0.38296403984636185 		Uiso   ? 		H 		0.10710
H 1.0  		0.6141073434991476 		0.09691824516635589  0.38154984472137526 		Uiso   ? 		H 		0.10710
H 1.0  		0.6120912759929322 		0.598194130925508  0.37900429349639947 		Uiso   ? 		H 		0.10710
H 1.0  		0.0038357958867161757 		0.32216115418588676  0.22683689804784507 		Uiso   ? 		H 		0.10679
H 1.0  		0.005940375591321989 		0.8278535675728728  0.22485702487286388 		Uiso   ? 		H 		0.10679
H 1.0  		0.5062042302420046 		0.32436941799980373  0.22641263951034907 		Uiso   ? 		H 		0.10679
H 1.0  		0.5098684563206699 		0.8263813916969281  0.22726115658534102 		Uiso   ? 		H 		0.10679
H 1.0  		0.009713305544190143 		0.3258415938757484  0.37999423008389005 		Uiso   ? 		H 		0.10708
H 1.0  		0.004450623239055873 		0.8214741387771126  0.380842747158882 		Uiso   ? 		H 		0.10708
H 1.0  		0.5022655250040401 		0.3258415938757484  0.38310545935886053 		Uiso   ? 		H 		0.10708
H 1.0  		0.5081356655966015 		0.8258906664049466  0.38070132764638337 		Uiso   ? 		H 		0.10708
H 1.0  		0.3383924742867235 		0.25223280007851606  0.21000797606050495 		Uiso   ? 		H 		0.11404
H 1.0  		0.33764255019163736 		0.7517911473157327  0.2094422980105103 		Uiso   ? 		H 		0.11404
H 1.0  		0.840596561914851 		0.2519874374325253  0.2081695223980224 		Uiso   ? 		H 		0.11404
H 1.0  		0.8424951279240158 		0.7530179605456866  0.20675532727303583 		Uiso   ? 		H 		0.11404
H 1.0  		0.3675923507283494 		0.09176562960054963  0.22627121999785044 		Uiso   ? 		H 		0.03151
H 1.0  		0.3609056547618134 		0.5820001962901168  0.22655405902284775 		Uiso   ? 		H 		0.03151
H 1.0  		0.8611871046581918 		0.08195112376091865  0.22584696146035446 		Uiso   ? 		H 		0.03151
H 1.0  		0.8600122002184465 		0.5815094709981353  0.22655405902284775 		Uiso   ? 		H 		0.03151
H 1.0  		0.35521281385018993 		0.07508096967317696  0.38098416667138063 		Uiso   ? 		H 		0.03196
H 1.0  		0.3541934585147578 		0.575375404848366  0.38140842520887663 		Uiso   ? 		H 		0.03196
H 1.0  		0.8698445818016454 		0.0890666404946511  0.3805599081338847 		Uiso   ? 		H 		0.03196
H 1.0  		0.86723918722361 		0.5878888997938954  0.37914571300889816 		Uiso   ? 		H 		0.03196
H 1.0  		0.35410465434832206 		0.1965354794386103  0.22584696146035446 		Uiso   ? 		H 		0.03151
H 1.0  		0.35344454066668457 		0.6958484640298361  0.2274025760978397 		Uiso   ? 		H 		0.03151
H 1.0  		0.835883292564271 		0.19113750122681325  0.22386708828537327 		Uiso   ? 		H 		0.03151
H 1.0  		0.8598919552645142 		0.7002649916576701  0.22669547853534638 		Uiso   ? 		H 		0.03151
H 1.0  		0.35450556297039687 		0.19776229266856415  0.37872145447140215 		Uiso   ? 		H 		0.03198
H 1.0  		0.36648745396938665 		0.6938855628619099  0.37971139105889273 		Uiso   ? 		H 		0.03198
H 1.0  		0.840034487974565 		0.1896653253508686  0.3788628739839008 		Uiso   ? 		H 		0.03198
H 1.0  		0.8475652041234419 		0.6938855628619099  0.38154984472137526 		Uiso   ? 		H 		0.03198
H 1.0  		0.24283838203330085 		0.0755716949651585  0.22627121999785044 		Uiso   ? 		H 		0.03151
H 1.0  		0.2414750591438104 		0.5739032289724213  0.22627121999785044 		Uiso   ? 		H 		0.03151
H 1.0  		0.7435684783698883 		0.08980272843262342  0.22485702487286388 		Uiso   ? 		H 		0.03151
H 1.0  		0.7400362656428632 		0.5795465698302091  0.22429134682286925 		Uiso   ? 		H 		0.03151
H 1.0  		0.24120004401459988 		0.08759446461870646  0.3805599081338847 		Uiso   ? 		H 		0.03201
H 1.0  		0.24347728110822486 		0.5736578663264306  0.38098416667138063 		Uiso   ? 		H 		0.03201
H 1.0  		0.7413097781189049 		0.0814603984689371  0.381267005696378 		Uiso   ? 		H 		0.03201
H 1.0  		0.7396770239890684 		0.5805280204141722  0.3805599081338847 		Uiso   ? 		H 		0.03201
H 1.0  		0.34561066366903903 		0.25689469035234075  0.3593469812590862 		Uiso   ? 		H 		0.11540
H 1.0  		0.332082615219678 		0.744920993227991  0.36712505444651233 		Uiso   ? 		H 		0.11540
H 1.0  		0.8488466539593413 		0.2625380312101286  0.35552865442162246 		Uiso   ? 		H 		0.11540
H 1.0  		0.8420308017570359 		0.7571891255275297  0.3606197568715741 		Uiso   ? 		H 		0.11540
H 1.0  		0.11155951563493988 		0.32044361566395135  0.2251398638978612 		Uiso   ? 		H 		0.03151
H 1.0  		0.12320440251774961 		0.8337422710766514  0.22528128341035983 		Uiso   ? 		H 		0.03151
H 1.0  		0.6154241788193828 		0.32436941799980373  0.22584696146035446 		Uiso   ? 		H 		0.03151
H 1.0  		0.5989606137797292 		0.8082245558936109  0.22584696146035446 		Uiso   ? 		H 		0.03151
H 1.0  		0.11400431318970913 		0.3236333300618314  0.3816912642338739 		Uiso   ? 		H 		0.03198
H 1.0  		0.10696717319222643 		0.8165668858572971  0.38027706910888737 		Uiso   ? 		H 		0.03198
H 1.0  		0.621179008717976 		0.3278044950436746  0.38070132764638337 		Uiso   ? 		H 		0.03198
H 1.0  		0.6080037254455212 		0.8195112376091864  0.3794285520338954 		Uiso   ? 		H 		0.03198
H 1.0  		0.23211830080545487 		0.32952203356561  0.22443276633536788 		Uiso   ? 		H 		0.03151
H 1.0  		0.2314405918781216 		0.825399941112965  0.22584696146035446 		Uiso   ? 		H 		0.03151
H 1.0  		0.731233643884936 		0.3307488467955639  0.22726115658534102 		Uiso   ? 		H 		0.03151
H 1.0  		0.7300716923989679 		0.8209834134851312  0.2269783175603437 		Uiso   ? 		H 		0.03151
H 1.0  		0.2333427772483041 		0.3255962312297576  0.3785800349589035 		Uiso   ? 		H 		0.03190
H 1.0  		0.2301392579756008 		0.8202473255471587  0.3811255861838793 		Uiso   ? 		H 		0.03190
H 1.0  		0.733882133989187 		0.33222102267150855  0.3798528105713914 		Uiso   ? 		H 		0.03190
H 1.0  		0.7313072876106244 		0.8251545784669743  0.3798528105713914 		Uiso   ? 		H 		0.03190
H 1.0  		0.11999327017826765 		0.2068407105702228  0.2257055419478558 		Uiso   ? 		H 		0.03151
H 1.0  		0.10557823636322722 		0.7054176072234764  0.22414992731037056 		Uiso   ? 		H 		0.03151
H 1.0  		0.6169989856341898 		0.20512317204828737  0.22683689804784507 		Uiso   ? 		H 		0.03151
H 1.0  		0.622731172368134 		0.707871233683384  0.22612980048535178 		Uiso   ? 		H 		0.03151
H 1.0  		0.1177697604186758 		0.20536853469427815  0.38098416667138063 		Uiso   ? 		H 		0.03195
H 1.0  		0.11799247677178862 		0.7051722445774856  0.380842747158882 		Uiso   ? 		H 		0.03195
H 1.0  		0.6306247495318233 		0.21027578761409366  0.38154984472137526 		Uiso   ? 		H 		0.03195
H 1.0  		0.6119270429247603 		0.7083619589753657  0.38183268374637264 		Uiso   ? 		H 		0.03195
H 1.0  		0.259597479213799 		0.2242614584355678  0.13024737101126266 		Uiso   ? 		H 		0.13286
H 1.0  		0.2631894901247115 		0.7299538718225538  0.1320858246737452 		Uiso   ? 		H 		0.13286
H 1.0  		0.7635760245342751 		0.22671508489547554  0.1320858246737452 		Uiso   ? 		H 		0.13286
H 1.0  		0.761036368647104 		0.7265187947786829  0.12968169296126802 		Uiso   ? 		H 		0.13286
H 1.0  		0.2595076688003503 		0.22450682108155856  0.28368754207230495 		Uiso   ? 		H 		0.13278
H 1.0  		0.2603021169795874 		0.7233290803808029  0.28368754207230495 		Uiso   ? 		H 		0.13278
H 1.0  		0.7616636129833092 		0.22671508489547554  0.2841118006098009 		Uiso   ? 		H 		0.13278
H 1.0  		0.7632839501292801 		0.7267641574246738  0.2848188981722942 		Uiso   ? 		H 		0.13278
H 1.0  		0.21149534335263792 		0.9495534399842969  0.12982311247376668 		Uiso   ? 		H 		0.13286
H 1.0  		0.2107096927962488 		0.452448719206988  0.1310958880862546 		Uiso   ? 		H 		0.13286
H 1.0  		0.7187269799489212 		0.9529885170281677  0.125156268561311 		Uiso   ? 		H 		0.13286
H 1.0  		0.7151525642837046 		0.4507311806850525  0.12869175637377744 		Uiso   ? 		H 		0.13286
H 1.0  		0.2140780947660244 		0.9500441652762784  0.2841118006098009 		Uiso   ? 		H 		0.13279
H 1.0  		0.2103175817970219 		0.45293944449896956  0.2860916737847822 		Uiso   ? 		H 		0.13279
H 1.0  		0.7060345106771659 		0.9522524290901954  0.28694019085977407 		Uiso   ? 		H 		0.13279
H 1.0  		0.716615923767427 		0.45195799391500646  0.28100057133483053 		Uiso   ? 		H 		0.13279
H 1.0  		-0.010853019492543761 		0.18058690744920994  0.12869175637377744 		Uiso   ? 		H 		0.13286
H 1.0  		0.987795277946165 		0.6794091667484543  0.12996453198626534 		Uiso   ? 		H 		0.13286
H 1.0  		0.486365186135708 		0.1788693689272745  0.1293988539362707 		Uiso   ? 		H 		0.13286
H 1.0  		0.4868332620065825 		0.6791638041024635  0.13053021003625997 		Uiso   ? 		H 		0.13286
H 1.0  		-0.011832136417631228 		0.1850034350770439  0.2797277957223426 		Uiso   ? 		H 		0.13279
H 1.0  		0.982579310528264 		0.6745019138286388  0.28595025427228343 		Uiso   ? 		H 		0.13279
H 1.0  		0.4866674867214862 		0.17862400628128375  0.2835461225598063 		Uiso   ? 		H 		0.13279
H 1.0  		0.4870105616875205 		0.6722936500147219  0.2862330932972808 		Uiso   ? 		H 		0.13279
H 1.0  		0.26207514611400046 		0.22794189812542942  0.16673360523591604 		Uiso   ? 		H 		0.13289
H 1.0  		0.2609900520877039 		0.7272548827166553  0.167157863773412 		Uiso   ? 		H 		0.13289
H 1.0  		0.7573874166681749 		0.22156246932966928  0.1704105125608811 		Uiso   ? 		H 		0.13289
H 1.0  		0.7603419570620988 		0.7272548827166553  0.16800638084840394 		Uiso   ? 		H 		0.13289
H 1.0  		0.26235337497719435 		0.22892334870939252  0.3205980348344543 		Uiso   ? 		H 		0.13299
H 1.0  		0.2611039342237369 		0.7257827068407107  0.3215879714219449 		Uiso   ? 		H 		0.13299
H 1.0  		0.7560314628435969 		0.22352537049759547  0.3215879714219449 		Uiso   ? 		H 		0.13299
H 1.0  		0.753907989678237 		0.7216115418588674  0.3265376543593979 		Uiso   ? 		H 		0.13299
H 1.0  		0.21319758587723353 		0.955932868780057  0.1698448345108865 		Uiso   ? 		H 		0.13289
H 1.0  		0.2135771495497177 		0.4492590048091079  0.17055193207337976 		Uiso   ? 		H 		0.13289
H 1.0  		0.7096709153293522 		0.9510256158602415  0.16461231254843617 		Uiso   ? 		H 		0.13289
H 1.0  		0.7116957804584156 		0.4514672686230249  0.1661679271859214 		Uiso   ? 		H 		0.13289
H 1.0  		0.21208467042445794 		0.9520070664442046  0.3228607470344328 		Uiso   ? 		H 		0.13299
H 1.0  		0.21509097362456814 		0.45441162037491417  0.3205980348344543 		Uiso   ? 		H 		0.13299
H 1.0  		0.7133906539180987 		0.9542153302581216  0.3237092641094248 		Uiso   ? 		H 		0.13299
H 1.0  		0.7110342382188427 		0.4526940818529787  0.3222950689844382 		Uiso   ? 		H 		0.13299
H 1.0  		-0.014458875945257257 		0.17592501717538522  0.16645076621091873 		Uiso   ? 		H 		0.13289
H 1.0  		0.9842727554300117 		0.6791638041024635  0.167157863773412 		Uiso   ? 		H 		0.13289
H 1.0  		0.48588326472303245 		0.17960545686524684  0.1698448345108865 		Uiso   ? 		H 		0.13289
H 1.0  		0.4876832226959006 		0.6791638041024635  0.16560224913592678 		Uiso   ? 		H 		0.13289
H 1.0  		-0.015129215807678037 		0.17543429188340368  0.3228607470344328 		Uiso   ? 		H 		0.13299
H 1.0  		0.9866430166710687 		0.679654529394445  0.3222950689844382 		Uiso   ? 		H 		0.13299
H 1.0  		0.4880651075143442 		0.1788693689272745  0.3222950689844382 		Uiso   ? 		H 		0.13299
H 1.0  		0.4886382678984038 		0.6759740897045834  0.32215364947193953 		Uiso   ? 		H 		0.13299
H 1.0  		0.04027329114132307 		0.1523702031602709  0.20831094191052107 		Uiso   ? 		H 		0.11404
H 1.0  		0.03880488373864749 		0.6538914515654137  0.20859378093551836 		Uiso   ? 		H 		0.11404
H 1.0  		0.5361748887673174 		0.1484444008244185  0.20774526386052644 		Uiso   ? 		H 		0.11404
H 1.0  		0.5404284419178029 		0.6529100009814507  0.20604822971054257 		Uiso   ? 		H 		0.11404
H 1.0  		0.21602954348737752 		0.18132299538718227  0.12671188319879625 		Uiso   ? 		H 		0.13362
H 1.0  		0.21679112232118244 		0.679654529394445  0.12954027344876937 		Uiso   ? 		H 		0.13362
H 1.0  		0.7175392195304999 		0.18181372067916382  0.12487342953631371 		Uiso   ? 		H 		0.13362
H 1.0  		0.7071503802209134 		0.6722936500147219  0.1323686636987425 		Uiso   ? 		H 		0.13362
H 1.0  		0.2064892363091736 		0.17371675336146825  0.28637451280977944 		Uiso   ? 		H 		0.13392
H 1.0  		0.20895953414446258 		0.6737658258906665  0.2853845762222888 		Uiso   ? 		H 		0.13392
H 1.0  		0.7148337883582325 		0.18107763274119149  0.2829804445098117 		Uiso   ? 		H 		0.13392
H 1.0  		0.7085655962594671 		0.6759740897045834  0.2845360591472969 		Uiso   ? 		H 		0.13392
H 1.0  		0.2628545475114791 		0.9549514181960939  0.130105951498764 		Uiso   ? 		H 		0.13363
H 1.0  		0.2617314058779202 		0.4512219059770341  0.1320858246737452 		Uiso   ? 		H 		0.13363
H 1.0  		0.7614287069643089 		0.9512709785062322  0.1288331758862761 		Uiso   ? 		H 		0.13363
H 1.0  		0.7605268531259273 		0.4492590048091079  0.1310958880862546 		Uiso   ? 		H 		0.13363
H 1.0  		0.2620110632990496 		0.9502895279222693  0.28694019085977407 		Uiso   ? 		H 		0.13393
H 1.0  		0.2573260533270166 		0.4504858180390618  0.28368754207230495 		Uiso   ? 		H 		0.13393
H 1.0  		0.7522018191406903 		0.951516341152223  0.27986921523484126 		Uiso   ? 		H 		0.13393
H 1.0  		0.7637646703019982 		0.4531848071449603  0.28651593232227807 		Uiso   ? 		H 		0.13393
H 1.0  		-0.013761169292313413 		0.22916871135538328  0.130105951498764 		Uiso   ? 		H 		0.13363
H 1.0  		0.9891281339701381 		0.7262734321326921  0.1281260783237828 		Uiso   ? 		H 		0.13363
H 1.0  		0.4879762710228749 		0.22671508489547554  0.13053021003625997 		Uiso   ? 		H 		0.13363
H 1.0  		0.4871036671689079 		0.7260280694867014  0.12925743442377205 		Uiso   ? 		H 		0.13363
H 1.0  		0.04114964469918487 		0.15752281872607715  0.3633067276090486 		Uiso   ? 		H 		0.11541
H 1.0  		0.0394840212239162 		0.6560997153793307  0.3637309861465446 		Uiso   ? 		H 		0.11541
H 1.0  		0.5385539476312224 		0.15065266463833546  0.36401382517154185 		Uiso   ? 		H 		0.11541
H 1.0  		0.5395127425376204 		0.6519285503974875  0.36542802029652843 		Uiso   ? 		H 		0.11541
H 1.0  		-0.014865287122241153 		0.22696044754146633  0.28637451280977944 		Uiso   ? 		H 		0.13393
H 1.0  		0.9868388855196818 		0.7238198056727845  0.2835461225598063 		Uiso   ? 		H 		0.13393
H 1.0  		0.486342088335103 		0.22769653547943863  0.28651593232227807 		Uiso   ? 		H 		0.13393
H 1.0  		0.4888429343698648 		0.7218569045048583  0.283263283534809 		Uiso   ? 		H 		0.13393
H 1.0  		0.21740309255765128 		0.18279517126312692  0.17069335158587842 		Uiso   ? 		H 		0.13402
H 1.0  		0.2152467500468592 		0.6803906173324173  0.16913773694839318 		Uiso   ? 		H 		0.13402
H 1.0  		0.7099682649712782 		0.17347139071547749  0.1658850881609241 		Uiso   ? 		H 		0.13402
H 1.0  		0.7153676029199714 		0.6823535185003436  0.16843063938589992 		Uiso   ? 		H 		0.13402
H 1.0  		0.21165473913594668 		0.17469820394543134  0.32215364947193953 		Uiso   ? 		H 		0.13360
H 1.0  		0.21572867145953478 		0.679654529394445  0.3245577811844167 		Uiso   ? 		H 		0.13360
H 1.0  		0.7138194809417534 		0.17862400628128375  0.3246992006969153 		Uiso   ? 		H 		0.13360
H 1.0  		0.7100530274657738 		0.6759740897045834  0.3193252592219664 		Uiso   ? 		H 		0.13360
H 1.0  		0.3041347603204807 		0.2134655020119737  -0.04822405376204188 		Uiso   ? 		H 		0.03178
H 1.0  		0.2922103463594187 		0.7063990578074395  -0.04935540986203112 		Uiso   ? 		H 		0.03178
H 1.0  		0.8020145081883053 		0.21052115026008442  -0.05161812206200963 		Uiso   ? 		H 		0.03178
H 1.0  		0.8025899897183243 		0.7140052998331535  -0.04723411717455128 		Uiso   ? 		H 		0.03178
H 1.0  		0.23593518654752887 		0.2627833938561194  -0.05190096108700694 		Uiso   ? 		H 		0.03179
H 1.0  		0.24441447142202058 		0.7684758072431054  -0.0520423805995056 		Uiso   ? 		H 		0.03179
H 1.0  		0.7468272995185828 		0.26376484444008247  -0.04482998546207412 		Uiso   ? 		H 		0.03179
H 1.0  		0.7479328459064458 		0.7640592796152714  -0.04723411717455128 		Uiso   ? 		H 		0.03179
H 1.0  		0.1719325168250913 		0.18917460005888706  -0.04624418058706068 		Uiso   ? 		H 		0.03039
H 1.0  		0.1851000254055993 		0.7093434095593287  -0.05175954157450829 		Uiso   ? 		H 		0.03039
H 1.0  		0.6625875988337119 		0.18623024830699775  -0.04893115132453515 		Uiso   ? 		H 		0.03039
H 1.0  		0.6842611907842896 		0.7017371675336147  -0.04992108791202575 		Uiso   ? 		H 		0.03039
H 1.0  		0.22753175288569588 		0.14525468642653844  -0.045678502537066054 		Uiso   ? 		H 		0.03040
H 1.0  		0.23128346823185056 		0.640641868681912  -0.049213990349532465 		Uiso   ? 		H 		0.03040
H 1.0  		0.723431029365731 		0.1349494552949259  -0.048365473274540535 		Uiso   ? 		H 		0.03040
H 1.0  		0.7240370590952228 		0.6325449013642164  -0.04751695619954859 		Uiso   ? 		H 		0.03040
H 1.0  		0.23717785885605258 		0.3987142997350084  -0.04935540986203112 		Uiso   ? 		H 		0.03045
H 1.0  		0.24138974503825789 		0.9009716360781236  -0.04808263424954322 		Uiso   ? 		H 		0.03045
H 1.0  		0.7487555857892636 		0.3972421238590637  -0.04581992204956471 		Uiso   ? 		H 		0.03045
H 1.0  		0.7430855183851661 		0.8963097458042988  -0.050486765962020376 		Uiso   ? 		H 		0.03045
H 1.0  		0.2571807304034869 		0.9495534399842969  0.013859112224868339 		Uiso   ? 		H 		0.13934
H 1.0  		0.26304801388017746 		0.4534301697909511  0.012020658562385805 		Uiso   ? 		H 		0.13934
H 1.0  		0.7614287069643089 		0.9512709785062322  0.011737819537388491 		Uiso   ? 		H 		0.13934
H 1.0  		0.7644350101644191 		0.4536755324369418  0.012444917099881773 		Uiso   ? 		H 		0.13934
H 1.0  		-0.012087640782220868 		0.224016095789577  0.013859112224868339 		Uiso   ? 		H 		0.13933
H 1.0  		0.9870842450374435 		0.7243105309647659  0.0130105951498764 		Uiso   ? 		H 		0.13933
H 1.0  		0.48574396364043515 		0.22352537049759547  0.013717692712369682 		Uiso   ? 		H 		0.13933
H 1.0  		0.4858615954803629 		0.7265187947786829  0.011313560999892521 		Uiso   ? 		H 		0.13933
H 1.0  		0.1153932500187083 		0.4347826086956522  0.07240679039931214 		Uiso   ? 		H 		0.10635
H 1.0  		0.1129827503673066 		0.9301697909510257  0.07226537088681348 		Uiso   ? 		H 		0.10635
H 1.0  		0.6091370765759753 		0.43036608106781826  0.07212395137431482 		Uiso   ? 		H 		0.10635
H 1.0  		0.6149414784776723 		0.9294337030130533  0.06901272209934438 		Uiso   ? 		H 		0.10635
H 1.0  		0.4650220894993881 		0.07753459613308471  0.07212395137431482 		Uiso   ? 		H 		0.10635
H 1.0  		0.4672076819945947 		0.5812641083521446  0.07127543429932288 		Uiso   ? 		H 		0.10635
H 1.0  		0.9667201839922559 		0.07925213465502012  0.0692955611243417 		Uiso   ? 		H 		0.10635
H 1.0  		0.9653744563484612 		0.5810187457061537  0.07000265868683497 		Uiso   ? 		H 		0.10635
H 1.0  		0.18910963091237032 		0.3187260771420159  -0.07184111234931752 		Uiso   ? 		H 		0.41443
H 1.0  		0.192940524864156 		0.8295711060948081  -0.0705683367368296 		Uiso   ? 		H 		0.41443
H 1.0  		0.6917423672550963 		0.28363921876533515  -0.06943698063684035 		Uiso   ? 		H 		0.41443
H 1.0  		0.694095114584413 		0.820001962901168  -0.07169969283681886 		Uiso   ? 		H 		0.41443
H 1.0  		0.28402883343777546 		0.3003238786927078  0.055577868411972015 		Uiso   ? 		H 		0.11421
H 1.0  		0.2841464652777032 		0.8033173029737953  0.054163673286985445 		Uiso   ? 		H 		0.11421
H 1.0  		0.7893744513516366 		0.30891157130238495  0.04893115132453515 		Uiso   ? 		H 		0.11421
H 1.0  		0.7915577227008839 		0.8062616547256847  0.05345657572449217 		Uiso   ? 		H 		0.11421
H 1.0  		0.3415397344453444 		0.43404652075767985  0.07113401478682423 		Uiso   ? 		H 		0.10701
H 1.0  		0.334412784034413 		0.9272254391991364  0.07113401478682423 		Uiso   ? 		H 		0.10701
H 1.0  		0.8383811031741057 		0.42987535577583674  0.07000265868683497 		Uiso   ? 		H 		0.10701
H 1.0  		0.8365840023171083 		0.926489351261164  0.0715582733243202 		Uiso   ? 		H 		0.10701
H 1.0  		0.4627659377123421 		0.3008146039846894  0.07240679039931214 		Uiso   ? 		H 		0.10701
H 1.0  		0.4647871834803878 		0.8020904897438415  0.07014407819933363 		Uiso   ? 		H 		0.10701
H 1.0  		0.9616030519286294 		0.3010599666306802  0.07240679039931214 		Uiso   ? 		H 		0.10701
H 1.0  		0.9605748989703492 		0.7996368632839337  0.07169969283681886 		Uiso   ? 		H 		0.10701
H 1.0  		0.13072908014180606 		0.4004318382569438  0.09291261971161734 		Uiso   ? 		H 		0.11492
H 1.0  		0.13292114911390102 		0.8994994602021789  0.08895287336165494 		Uiso   ? 		H 		0.11492
H 1.0  		0.6327447493201883 		0.3989596623809991  0.0888114538491563 		Uiso   ? 		H 		0.11492
H 1.0  		0.6341766680164139 		0.8977819216802434  0.08768009774916705 		Uiso   ? 		H 		0.11492
H 1.0  		0.4321194690947329 		0.10182549808617136  0.08753867823666839 		Uiso   ? 		H 		0.11491
H 1.0  		0.43519668924753774 		0.6077632741191481  0.08527596603668988 		Uiso   ? 		H 		0.11491
H 1.0  		0.9341856028642431 		0.10427912454607911  0.08570022457418584 		Uiso   ? 		H 		0.11491
H 1.0  		0.9351902200698503 		0.5967219550495633  0.09121558556163345 		Uiso   ? 		H 		0.11491
H 1.0  		0.1378310662421292 		0.400186475610953  0.056850644024459926 		Uiso   ? 		H 		0.11422
H 1.0  		0.13325631904511148 		0.8997448228481696  0.053880834261988135 		Uiso   ? 		H 		0.11422
H 1.0  		0.6269746453218588 		0.39846893708901765  0.050769604987017686 		Uiso   ? 		H 		0.11422
H 1.0  		0.6347483998425382 		0.8968004710962804  0.053880834261988135 		Uiso   ? 		H 		0.11422
H 1.0  		0.11351726252412517 		0.2878103837471784  -0.07042691722433095 		Uiso   ? 		H 		0.41439
H 1.0  		0.1214729590176612 		0.7920306212582198  -0.07283104893680811 		Uiso   ? 		H 		0.41439
H 1.0  		0.6518410110783333 		0.32240651683187754  -0.0715582733243202 		Uiso   ? 		H 		0.41439
H 1.0  		0.6210438306412742 		0.787368730984395  -0.07212395137431482 		Uiso   ? 		H 		0.41439
H 1.0  		0.4328314759254338 		0.10452448719206989  0.055436448899473356 		Uiso   ? 		H 		0.11421
H 1.0  		0.43314168154603594 		0.5977034056335264  0.050769604987017686 		Uiso   ? 		H 		0.11421
H 1.0  		0.9335282159555994 		0.09446461870644814  0.04765837571204725 		Uiso   ? 		H 		0.11421
H 1.0  		0.9351180049020975 		0.6004023947394249  0.05373941474948948 		Uiso   ? 		H 		0.11421
H 1.0  		0.2857723696286505 		0.3977328491510453  0.0890942928741536 		Uiso   ? 		H 		0.11165
H 1.0  		0.29044210550094707 		0.900480910786142  0.09079132702413749 		Uiso   ? 		H 		0.11165
H 1.0  		0.7926030976028591 		0.3999411129649622  0.09347829776161196 		Uiso   ? 		H 		0.11165
H 1.0  		0.7796754949941254 		0.8985180096182158  0.08273041481171406 		Uiso   ? 		H 		0.11165
H 1.0  		0.433940836667259 		0.25591323976837765  0.09262978068662002 		Uiso   ? 		H 		0.11165
H 1.0  		0.432053925396813 		0.7527725978996959  0.0900842294616442 		Uiso   ? 		H 		0.11165
H 1.0  		0.9333496827096703 		0.25517715183040535  0.09262978068662002 		Uiso   ? 		H 		0.11165
H 1.0  		0.9334497193039024 		0.754735499067622  0.09079132702413749 		Uiso   ? 		H 		0.11165
H 1.0  		0.2846201083535542 		0.3979782117970361  0.052608058649500224 		Uiso   ? 		H 		0.11069
H 1.0  		0.2863631252584059 		0.898272646972225  0.052608058649500224 		Uiso   ? 		H 		0.11069
H 1.0  		0.7881977450519554 		0.3992050250269899  0.05274947816199888 		Uiso   ? 		H 		0.11069
H 1.0  		0.7898902973656792 		0.8955736578663265  0.049213990349532465 		Uiso   ? 		H 		0.11069
H 1.0  		0.4312988230398966 		0.24977917361860832  0.05402225377448679 		Uiso   ? 		H 		0.11069
H 1.0  		0.4334251533211273 		0.7478653449798803  0.05501219036197739 		Uiso   ? 		H 		0.11069
H 1.0  		0.9314284735358568 		0.25345961330846994  0.052608058649500224 		Uiso   ? 		H 		0.11069
H 1.0  		0.9335307320945032 		0.7527725978996959  0.052325219624502914 		Uiso   ? 		H 		0.11069
H 1.0  		0.04102464379434461 		0.15089802728432625  0.08895287336165494 		Uiso   ? 		H 		0.11491
H 1.0  		0.03872154980208736 		0.6494749239375798  0.0920641026366254 		Uiso   ? 		H 		0.11491
H 1.0  		0.5362429486041413 		0.15580528020414175  0.08669016116167644 		Uiso   ? 		H 		0.11491
H 1.0  		0.5385905666805494 		0.6556089900873492  0.08838719531166032 		Uiso   ? 		H 		0.11491
H 1.0  		0.2834811733342355 		0.3000785160467171  0.0888114538491563 		Uiso   ? 		H 		0.11491
H 1.0  		0.2917743609049414 		0.8109235449995094  0.09135700507413211 		Uiso   ? 		H 		0.11491
H 1.0  		0.7837247059662286 		0.302286779860634  0.0900842294616442 		Uiso   ? 		H 		0.11491
H 1.0  		0.7858028928022908 		0.8028265776818138  0.08711441969917241 		Uiso   ? 		H 		0.11491
H 1.0  		0.27902610279620527 		0.1177740700755717  -0.07028549771183229 		Uiso   ? 		H 		0.41436
H 1.0  		0.28413096385998876 		0.5810187457061537  -0.06986123917433631 		Uiso   ? 		H 		0.41436
H 1.0  		0.7784918899066331 		0.11630189419962705  -0.06901272209934438 		Uiso   ? 		H 		0.41436
H 1.0  		0.7813820388336727 		0.5797919324761999  -0.07268962942430945 		Uiso   ? 		H 		0.41436
H 1.0  		0.039437370986750306 		0.3032682304445971  0.08739725872416973 		Uiso   ? 		H 		0.11165
H 1.0  		0.039366584376932856 		0.8050348414957308  0.08810435628666301 		Uiso   ? 		H 		0.11165
H 1.0  		0.5404498515174607 		0.3074393954264403  0.09079132702413749 		Uiso   ? 		H 		0.11165
H 1.0  		0.536422764423983 		0.8072431053096477  0.08923571238665226 		Uiso   ? 		H 		0.11165
H 1.0  		0.1360910847622046 		0.15531455491216017  0.08768009774916705 		Uiso   ? 		H 		0.11165
H 1.0  		0.13332134345700822 		0.6516831877514968  0.09277120019911868 		Uiso   ? 		H 		0.11165
H 1.0  		0.6401024994281128 		0.1582589066640495  0.08541738554918854 		Uiso   ? 		H 		0.11165
H 1.0  		0.633810235606763 		0.6543821768573952  0.0890942928741536 		Uiso   ? 		H 		0.11165
H 1.0  		0.040020221581681795 		0.31038374717832956  0.050911024499516344 		Uiso   ? 		H 		0.11069
H 1.0  		0.040413761138844095 		0.8079791932476201  0.05119386352451366 		Uiso   ? 		H 		0.11069
H 1.0  		0.5383402238939019 		0.30449504367455105  0.05303231718699619 		Uiso   ? 		H 		0.11069
H 1.0  		0.5386944176287435 		0.8062616547256847  0.05119386352451366 		Uiso   ? 		H 		0.11069
H 1.0  		0.14114270545294472 		0.15776818137206794  0.05656780499946261 		Uiso   ? 		H 		0.11069
H 1.0  		0.135233755007974 		0.6516831877514968  0.05402225377448679 		Uiso   ? 		H 		0.11069
H 1.0  		0.6322292442831129 		0.1501619393463539  0.0520423805995056 		Uiso   ? 		H 		0.11069
H 1.0  		0.634037999878829 		0.651437825105506  0.0543050927994841 		Uiso   ? 		H 		0.11069
H 1.0  		0.33587474728523364 		0.0036804396898616155  0.05571928792447067 		Uiso   ? 		H 		0.11069
H 1.0  		0.33513362081299536 		0.5049563254490136  0.05600212694946798 		Uiso   ? 		H 		0.11069
H 1.0  		0.8489399054247515 		0.0022082638139169692  0.048365473274540535 		Uiso   ? 		H 		0.11069
H 1.0  		0.8393311327826893 		0.5027480616350967  0.053880834261988135 		Uiso   ? 		H 		0.11069
H 1.0  		0.33158167000337124 		0.24413583276082051  0.08669016116167644 		Uiso   ? 		H 		0.11491
H 1.0  		0.33839390284465887 		0.750318971439788  0.08697300018667375 		Uiso   ? 		H 		0.11491
H 1.0  		0.8421761246805658 		0.2581215035822947  0.09079132702413749 		Uiso   ? 		H 		0.11491
H 1.0  		0.8341311537434924 		0.743939542644028  0.08782151726166569 		Uiso   ? 		H 		0.11491
H 1.0  		0.1894468946715621 		0.10010795956423595  0.05614354646196664 		Uiso   ? 		H 		0.11069
H 1.0  		0.1871766700247371 		0.599175581509471  0.05345657572449217 		Uiso   ? 		H 		0.11069
H 1.0  		0.6877034794388771 		0.09961723427225441  0.05274947816199888 		Uiso   ? 		H 		0.11069
H 1.0  		0.6806334700959622 		0.5920600647757386  0.050486765962020376 		Uiso   ? 		H 		0.11069
H 1.0  		0.3566253354407837 		0.16120325841593877  -0.07240679039931214 		Uiso   ? 		H 		0.41427
H 1.0  		0.3230204474252212 		0.6587987044852293  -0.07311388796180542 		Uiso   ? 		H 		0.41427
H 1.0  		0.8553462463750785 		0.15654136814211406  -0.07353814649930139 		Uiso   ? 		H 		0.41427
H 1.0  		0.8218881098409812 		0.6531553636274414  -0.06957840014933901 		Uiso   ? 		H 		0.41427
H 1.0  		0.3466307332834389 		0.0056433408577878106  0.09220552214912406 		Uiso   ? 		H 		0.11165
H 1.0  		0.3428249339851386 		0.5071645892629307  0.09163984409912942 		Uiso   ? 		H 		0.11165
H 1.0  		0.8375399724326692 		0.004907252919815488  0.08626590262418048 		Uiso   ? 		H 		0.11165
H 1.0  		0.8384001593027705 		0.5047109628030229  0.0888114538491563 		Uiso   ? 		H 		0.11165
H 1.0  		0.17847609735506792 		0.09176562960054963  0.09135700507413211 		Uiso   ? 		H 		0.11165
H 1.0  		0.19083066992261913 		0.6013838453233881  0.08951855141164958 		Uiso   ? 		H 		0.11165
H 1.0  		0.6844087211947898 		0.09642751987437434  0.0900842294616442 		Uiso   ? 		H 		0.11165
H 1.0  		0.6867081958260293 		0.5986848562174895  0.09036706848664151 		Uiso   ? 		H 		0.11165
H 1.0  		0.3016141928870081 		0.36141917754441066  -0.0021212926874798477 		Uiso   ? 		H 		0.03205
H 1.0  		0.3061283796549916 		0.8634311512415351  -0.00848517074991939 		Uiso   ? 		H 		0.03205
H 1.0  		0.7988805419604285 		0.3572480125625675  -0.0012727756124879086 		Uiso   ? 		H 		0.03205
H 1.0  		0.8031493692106502 		0.8587692609677103  -0.009050848799914017 		Uiso   ? 		H 		0.03205
H 1.0  		0.07486078614285617 		0.3562665619786044  -0.0069295561124341695 		Uiso   ? 		H 		0.03205
H 1.0  		0.08073324788137709 		0.8626950633035627  -0.010606463437399238 		Uiso   ? 		H 		0.03205
H 1.0  		0.5790365475359254 		0.36166454019040145  -0.007070975624932826 		Uiso   ? 		H 		0.03205
H 1.0  		0.580501335577583 		0.8609775247816273  -0.0069295561124341695 		Uiso   ? 		H 		0.03205
H 1.0  		0.08386847999927857 		0.13544018058690746  -0.0097579463624073 		Uiso   ? 		H 		0.03204
H 1.0  		0.08024230152787554 		0.6364707037000688  -0.011313560999892521 		Uiso   ? 		H 		0.03204
H 1.0  		0.5729222486655594 		0.13396800471096282  -0.004242585374959695 		Uiso   ? 		H 		0.03204
H 1.0  		0.5792831082936444 		0.6349985278241241  -0.00890942928741536 		Uiso   ? 		H 		0.03204
H 1.0  		0.3187566357689189 		0.08121503582294633  -0.07070975624932826 		Uiso   ? 		H 		0.41436
H 1.0  		0.3543717321176751 		0.6161056040828345  -0.07297246844930677 		Uiso   ? 		H 		0.41436
H 1.0  		0.8153855143253507 		0.07704387084110316  -0.07113401478682423 		Uiso   ? 		H 		0.41436
H 1.0  		0.8533292049468838 		0.6102169005790559  -0.07226537088681348 		Uiso   ? 		H 		0.41436
H 1.0  		0.39528754169493985 		0.26572774560800866  -0.012727756124879086 		Uiso   ? 		H 		0.03204
H 1.0  		0.3890874094329982 		0.7679850819511238  -0.006788136599935513 		Uiso   ? 		H 		0.03204
H 1.0  		0.8950491529142575 		0.26867209735989794  -0.009899365874905957 		Uiso   ? 		H 		0.03204
H 1.0  		0.8955172287851318 		0.7689665325350868  -0.005798200012444917 		Uiso   ? 		H 		0.03204
H 1.0  		0.3934975825848769 		0.04073019923446855  -0.00890942928741536 		Uiso   ? 		H 		0.03204
H 1.0  		0.39672155421914684 		0.5456865246834823  -0.0032526487874691 		Uiso   ? 		H 		0.03204
H 1.0  		0.8940346181798002 		0.040975561880459324  -0.004808263424954322 		Uiso   ? 		H 		0.03204
H 1.0  		0.8982312302622693 		0.5461772499754638  -0.0019798731749811915 		Uiso   ? 		H 		0.03204
H 1.0  		0.18978891438166165 		0.006870154087741683  0.05571928792447067 		Uiso   ? 		H 		0.11421
H 1.0  		0.1861627359102586 		0.5079006772009029  0.05133528303701231 		Uiso   ? 		H 		0.11421
H 1.0  		0.6870399893553456 		0.0056433408577878106  0.05458793182448142 		Uiso   ? 		H 		0.11421
H 1.0  		0.6785987520881162 		0.5029934242810874  0.05147670254951097 		Uiso   ? 		H 		0.11421
H 1.0  		0.03830173103537042 		0.2593483168122485  -0.044971404974572776 		Uiso   ? 		H 		0.03037
H 1.0  		0.041486356847319716 		0.7684758072431054  -0.050486765962020376 		Uiso   ? 		H 		0.03037
H 1.0  		0.5468564521107995 		0.2603297673962116  -0.050486765962020376 		Uiso   ? 		H 		0.03037
H 1.0  		0.5422993001594776 		0.7633231916772991  -0.04963824888702843 		Uiso   ? 		H 		0.03037
H 1.0  		0.17092408526552205 		0.04563745215428403  0.00042425853749596956 		Uiso   ? 		H 		0.03204
H 1.0  		0.17206897747570588 		0.5417607223476298  -0.010040785387404612 		Uiso   ? 		H 		0.03204
H 1.0  		0.6710185452700906 		0.042447737756403967  -0.006363878062439543 		Uiso   ? 		H 		0.03204
H 1.0  		0.6719268755853607 		0.5397978211797037  -0.005798200012444917 		Uiso   ? 		H 		0.03204
H 1.0  		0.3346172555129296 		0.32117970360192366  0.07070975624932826 		Uiso   ? 		H 		0.10635
H 1.0  		0.3375301289385735 		0.8246638531749928  0.06872988307434706 		Uiso   ? 		H 		0.10635
H 1.0  		0.8369856898682181 		0.32338796741584064  0.07113401478682423 		Uiso   ? 		H 		0.10635
H 1.0  		0.8422753010118074 		0.8227009520070666  0.07141685381182154 		Uiso   ? 		H 		0.10635
H 1.0  		0.008151110706193128 		0.09789969575031898  0.06915414161184304 		Uiso   ? 		H 		0.10635
H 1.0  		0.008292814268705151 		0.5996663068014526  0.07014407819933363 		Uiso   ? 		H 		0.10635
H 1.0  		0.5084034409610342 		0.10182549808617136  0.07353814649930139 		Uiso   ? 		H 		0.10635
H 1.0  		0.5077192555568124 		0.6023652959073511  0.06887130258684572 		Uiso   ? 		H 		0.10635
H 1.0  		0.22190779974885283 		0.007360879379723231  -0.04596134156206337 		Uiso   ? 		H 		0.03185
H 1.0  		0.21496926778766662 		0.5017666110511336  -0.04426430741207949 		Uiso   ? 		H 		0.03185
H 1.0  		0.7251479453700843 		0.001962901167926195  -0.047092697662052624 		Uiso   ? 		H 		0.03185
H 1.0  		0.7245535703793112 		0.5022573363431152  -0.045254243999570086 		Uiso   ? 		H 		0.03185
H 1.0  		0.3564310411341286 		0.3010599666306802  0.0715582733243202 		Uiso   ? 		H 		0.10635
H 1.0  		0.3587633851108003 		0.8038080282657768  0.07070975624932826 		Uiso   ? 		H 		0.10635
H 1.0  		0.8571236258333651 		0.3020414172146433  0.07198253186181616 		Uiso   ? 		H 		0.10635
H 1.0  		0.859935570076753 		0.7976739621160075  0.07184111234931752 		Uiso   ? 		H 		0.10635
H 1.0  		0.43200839506564914 		0.13347727941898127  -0.049072570837033806 		Uiso   ? 		H 		0.03177
H 1.0  		0.4323537911776427 		0.6335263519481794  -0.048789731812036496 		Uiso   ? 		H 		0.03177
H 1.0  		0.9275489168528792 		0.14795367553243696  -0.052183800112004256 		Uiso   ? 		H 		0.03177
H 1.0  		0.9324834416736028 		0.6372067916380411  -0.050486765962020376 		Uiso   ? 		H 		0.03177
H 1.0  		0.03710634190902499 		0.185984885661007  -0.046527019612058 		Uiso   ? 		H 		0.03177
H 1.0  		0.04144090785011112 		0.688487584650113  -0.04751695619954859 		Uiso   ? 		H 		0.03177
H 1.0  		0.5347911948502159 		0.18647561095298854  -0.04482998546207412 		Uiso   ? 		H 		0.03177
H 1.0  		0.5453449168568749 		0.6882422220041222  -0.046527019612058 		Uiso   ? 		H 		0.03177
H 1.0  		0.1741886362871037 		0.392580233585239  -0.04963824888702843 		Uiso   ? 		H 		0.03185
H 1.0  		0.17853432099699712 		0.9031798998920405  -0.048789731812036496 		Uiso   ? 		H 		0.03185
H 1.0  		0.6796722080595823 		0.39846893708901765  -0.046951278149553966 		Uiso   ? 		H 		0.03185
H 1.0  		0.6634674424524568 		0.8972911963882619  -0.04680985863705531 		Uiso   ? 		H 		0.03185
H 1.0  		0.18007130752251976 		0.00613406614976936  0.09588242947408912 		Uiso   ? 		H 		0.11491
H 1.0  		0.18407070353239552 		0.5083914024928845  0.09376113678660927 		Uiso   ? 		H 		0.11491
H 1.0  		0.6826675061498741 		0.005397978211797036  0.09262978068662002 		Uiso   ? 		H 		0.11491
H 1.0  		0.6851049346397309 		0.5049563254490136  0.08994280994914555 		Uiso   ? 		H 		0.11491
H 1.0  		0.13654088343344928 		-0.02355481401511434  0.07283104893680811 		Uiso   ? 		H 		0.10635
H 1.0  		0.13700895930432383 		0.4767396211600746  0.07184111234931752 		Uiso   ? 		H 		0.10635
H 1.0  		0.641180970993498 		-0.02232800078516047  0.0705683367368296 		Uiso   ? 		H 		0.10635
H 1.0  		0.6342183673097277 		0.4733045441162038  0.07240679039931214 		Uiso   ? 		H 		0.10635
H 1.0  		0.12974546690882244 		0.07802532142506625  0.07169969283681886 		Uiso   ? 		H 		0.10701
H 1.0  		0.13641742474553348 		0.5805280204141722  0.07311388796180542 		Uiso   ? 		H 		0.10701
H 1.0  		0.634466567259472 		0.07728923348709393  0.0725482099118108 		Uiso   ? 		H 		0.10701
H 1.0  		0.6331777806836939 		0.5783197566002553  0.07169969283681886 		Uiso   ? 		H 		0.10701
H 1.0  		0.35936491853239605 		0.9745804298753559  0.07099259527432557 		Uiso   ? 		H 		0.10701
H 1.0  		0.35759782990496 		0.47551280793012074  0.07226537088681348 		Uiso   ? 		H 		0.10701
H 1.0  		0.8595908559186933 		0.973353616645402  0.0692955611243417 		Uiso   ? 		H 		0.10701
H 1.0  		0.8592936032518682 		0.47085091765629605  0.07070975624932826 		Uiso   ? 		H 		0.10701
H 1.0  		0.34333901046427856 		0.25787614093630384  0.04992108791202575 		Uiso   ? 		H 		0.11421
H 1.0  		0.3412965500895195 		0.7539994111296496  0.05119386352451366 		Uiso   ? 		H 		0.11421
H 1.0  		0.8356828950827281 		0.24683482186671904  0.055577868411972015 		Uiso   ? 		H 		0.11421
H 1.0  		0.8452903695097318 		0.7535086858376682  0.04977966839952709 		Uiso   ? 		H 		0.11421
H 1.0  		0.11488923705244083 		0.10526057513004221  0.07283104893680811 		Uiso   ? 		H 		0.10701
H 1.0  		0.11634522747125078 		0.6028560211993327  0.07240679039931214 		Uiso   ? 		H 		0.10701
H 1.0  		0.613748101845353 		0.09789969575031898  0.07028549771183229 		Uiso   ? 		H 		0.10701
H 1.0  		0.6123695048561262 		0.599175581509471  0.07141685381182154 		Uiso   ? 		H 		0.10701
H 1.0  		0.005496371443031722 		0.3263323191677299  0.07099259527432557 		Uiso   ? 		H 		0.10701
H 1.0  		0.004950139897427208 		0.8241731278830111  0.07070975624932826 		Uiso   ? 		H 		0.10701
H 1.0  		0.5080268313795218 		0.3246147806457945  0.07000265868683497 		Uiso   ? 		H 		0.10701
H 1.0  		0.5092944033485863 		0.8209834134851312  0.07014407819933363 		Uiso   ? 		H 		0.10701
H 1.0  		0.3397797229147756 		0.06673863970949064  0.07226537088681348 		Uiso   ? 		H 		0.03130
H 1.0  		0.3595321056915397 		0.5805280204141722  0.07099259527432557 		Uiso   ? 		H 		0.03130
H 1.0  		0.8604181567594745 		0.07998822259299246  0.07184111234931752 		Uiso   ? 		H 		0.03130
H 1.0  		0.8664702393248926 		0.5859259986259692  0.0705683367368296 		Uiso   ? 		H 		0.03130
H 1.0  		0.37206771096003555 		0.19506330356266566  0.07169969283681886 		Uiso   ? 		H 		0.03130
H 1.0  		0.36488614062704705 		0.6953577387378547  0.07042691722433095 		Uiso   ? 		H 		0.03130
H 1.0  		0.8629945453549616 		0.19776229266856415  0.07198253186181616 		Uiso   ? 		H 		0.03130
H 1.0  		0.8472781776374003 		0.6911865737560114  0.0715582733243202 		Uiso   ? 		H 		0.03130
H 1.0  		0.2417870499404605 		0.08366866228285408  0.07127543429932288 		Uiso   ? 		H 		0.03130
H 1.0  		0.24411475162521346 		0.5736578663264306  0.06986123917433631 		Uiso   ? 		H 		0.03130
H 1.0  		0.7417588301861482 		0.08023358523898323  0.07198253186181616 		Uiso   ? 		H 		0.03130
H 1.0  		0.7419070102255488 		0.5773383060162922  0.07141685381182154 		Uiso   ? 		H 		0.03130
H 1.0  		0.11336684267272054 		0.3236333300618314  0.07226537088681348 		Uiso   ? 		H 		0.03130
H 1.0  		0.1132455914717751 		0.8214741387771126  0.0715582733243202 		Uiso   ? 		H 		0.03130
H 1.0  		0.6093253813667314 		0.3189714397880067  0.07042691722433095 		Uiso   ? 		H 		0.03130
H 1.0  		0.6228586080779227 		0.8334969084306605  0.0705683367368296 		Uiso   ? 		H 		0.03130
H 1.0  		0.2305193086090746 		0.33737363823731475  0.07198253186181616 		Uiso   ? 		H 		0.03130
H 1.0  		0.2325752579075222 		0.8217195014231035  0.06971981966183766 		Uiso   ? 		H 		0.03130
H 1.0  		0.7273912255373087 		0.3273137697516931  0.0715582733243202 		Uiso   ? 		H 		0.03130
H 1.0  		0.7323632619953835 		0.829816468740799  0.07169969283681886 		Uiso   ? 		H 		0.03130
H 1.0  		0.11814659731816626 		0.2078221611541859  0.06943698063684035 		Uiso   ? 		H 		0.03130
H 1.0  		0.12093446983896985 		0.704681519285504  0.07169969283681886 		Uiso   ? 		H 		0.03130
H 1.0  		0.6026723336746628 		0.20536853469427815  0.07099259527432557 		Uiso   ? 		H 		0.03130
H 1.0  		0.6226983030227019 		0.7073805083914025  0.07000265868683497 		Uiso   ? 		H 		0.03130
H 1.0  		0.4357800591284926 		0.21199332613602906  -0.046951278149553966 		Uiso   ? 		H 		0.03037
H 1.0  		0.4327760770743418 		0.7159682010010797  -0.049496829374529774 		Uiso   ? 		H 		0.03037
H 1.0  		0.932704761793814 		0.21223868878201985  -0.04893115132453515 		Uiso   ? 		H 		0.03037
H 1.0  		0.9335144840727874 		0.708116596329375  -0.049072570837033806 		Uiso   ? 		H 		0.03037
H 1.0  		0.04031495810960315 		0.15457846697418787  0.052608058649500224 		Uiso   ? 		H 		0.11421
H 1.0  		0.03910070784753722 		0.6583079791932477  0.05614354646196664 		Uiso   ? 		H 		0.11421
H 1.0  		0.5393798365979563 		0.15187947786828934  0.05501219036197739 		Uiso   ? 		H 		0.11421
H 1.0  		0.5397516255784937 		0.6570811659632938  0.05571928792447067 		Uiso   ? 		H 		0.11421
H 1.0  		0.26245198301349093 		0.23039552458533713  0.011030721974895208 		Uiso   ? 		H 		0.13863
H 1.0  		0.2546523715941793 		0.7167042889390519  0.015838985399849532 		Uiso   ? 		H 		0.13863
H 1.0  		0.7623492269454665 		0.2242614584355678  0.013576273199871026 		Uiso   ? 		H 		0.13863
H 1.0  		0.7570865446403321 		0.7198940033369321  0.013859112224868339 		Uiso   ? 		H 		0.13863
H 1.0  		0.2902944447475698 		0.0004907252919815488  -0.047092697662052624 		Uiso   ? 		H 		0.03044
H 1.0  		0.30359526489477634 		0.5052016880950045  -0.04808263424954322 		Uiso   ? 		H 		0.03044
H 1.0  		0.7949521275533145 		0.005152615565806262  -0.04794121473704456 		Uiso   ? 		H 		0.03044
H 1.0  		0.7966446798670382 		0.5015212484051429  -0.046951278149553966 		Uiso   ? 		H 		0.03044
H 1.0  		0.21026206928694086 		0.9517617037982138  0.011879239049887148 		Uiso   ? 		H 		0.13864
H 1.0  		0.21678209738035648 		0.4526940818529787  0.0162632439373455 		Uiso   ? 		H 		0.13864
H 1.0  		0.716063215744934 		0.9544606929041124  0.012303497587383116 		Uiso   ? 		H 		0.13864
H 1.0  		0.7131503423192901 		0.4509765433310433  0.014707629299860277 		Uiso   ? 		H 		0.13864
H 1.0  		-0.011589098045828916 		0.1791147315732653  0.012303497587383116 		Uiso   ? 		H 		0.13863
H 1.0  		0.9887086561803882 		0.6740111885366572  0.00933368782491133 		Uiso   ? 		H 		0.13863
H 1.0  		0.4850069111651706 		0.17445284129944058  0.010747882949897895 		Uiso   ? 		H 		0.13863
H 1.0  		0.48622866083502614 		0.679654529394445  0.012020658562385805 		Uiso   ? 		H 		0.13863
H 1.0  		0.14536574272899094 		0.241436843654922  -0.07325530747430407 		Uiso   ? 		H 		0.41426
H 1.0  		0.14997206105638253 		0.7495828835018158  -0.07283104893680811 		Uiso   ? 		H 		0.41426
H 1.0  		0.6167129330701274 		0.2500245362645991  -0.06901272209934438 		Uiso   ? 		H 		0.41426
H 1.0  		0.6558694944047128 		0.7473746196878988  -0.07070975624932826 		Uiso   ? 		H 		0.41426
H 1.0  		0.217597987484285 		0.17936009421925608  0.014000531737366996 		Uiso   ? 		H 		0.13933
H 1.0  		0.2066943574165906 		0.6700853862008048  0.008343751237420734 		Uiso   ? 		H 		0.13933
H 1.0  		0.7164679710460043 		0.1800961821572284  0.012869175637377743 		Uiso   ? 		H 		0.13933
H 1.0  		0.7077461837696217 		0.6700853862008048  0.010747882949897895 		Uiso   ? 		H 		0.13933
O 1.0  		0.2995460049137513 		0.13544018058690746  0.42553131310845743 		Uiso   ? 		O 		-0.97332
O 1.0  		0.30138762985489953 		0.6372067916380411  0.42524847408346017 		Uiso   ? 		O 		-0.97332
O 1.0  		0.8028542103718065 		0.13740308175483368  0.42680408872094533 		Uiso   ? 		O 		-0.97332
O 1.0  		0.8000844690666101 		0.6337717145941703  0.4258141521334548 		Uiso   ? 		O 		-0.97332
O 1.0  		0.1192387361162964 		0.26695455883796254  0.42567273262095606 		Uiso   ? 		O 		-0.97351
O 1.0  		0.11687870105602272 		0.7662675434291885  0.42524847408346017 		Uiso   ? 		O 		-0.97351
O 1.0  		0.6159333533635925 		0.26376484444008247  0.42567273262095606 		Uiso   ? 		O 		-0.97351
O 1.0  		0.6161648673395532 		0.7652860928452253  0.42567273262095606 		Uiso   ? 		O 		-0.97351
O 1.0  		0.2148931569319963 		0.3150456374521543  0.4440572692457815 		Uiso   ? 		O 		-1.12392
O 1.0  		0.21350576231992155 		0.8146039846893709  0.4436330107082855 		Uiso   ? 		O 		-1.12392
O 1.0  		0.7132812190810401 		0.316517813328099  0.44320875217078953 		Uiso   ? 		O 		-1.12392
O 1.0  		0.7127437851582835 		0.8160761605653156  0.44306733265829085 		Uiso   ? 		O 		-1.12392
O 1.0  		0.17208634540342363 		0.31995289037196983  0.42553131310845743 		Uiso   ? 		O 		-0.97464
O 1.0  		0.17003740855177601 		0.8207380508391403  0.42567273262095606 		Uiso   ? 		O 		-0.97464
O 1.0  		0.6718391589998933 		0.32117970360192366  0.4251070545709615 		Uiso   ? 		O 		-0.97464
O 1.0  		0.6713433920454168 		0.8229463146530573  0.4251070545709615 		Uiso   ? 		O 		-0.97464
O 1.0  		0.1738815797504177 		0.2674452841299441  0.42609699115845207 		Uiso   ? 		O 		-0.97358
O 1.0  		0.17261686489722378 		0.7672489940131515  0.4251070545709615 		Uiso   ? 		O 		-0.97358
O 1.0  		0.6710099749652207 		0.26597310825399945  0.4262384106709507 		Uiso   ? 		O 		-0.97358
O 1.0  		0.6723696784936936 		0.7684758072431054  0.42468279603346554 		Uiso   ? 		O 		-0.97358
O 1.0  		0.11814341590921652 		0.266463833545981  0.4887458351953569 		Uiso   ? 		O 		-0.97598
O 1.0  		0.11852168136664232 		0.7670036313671607  0.4887458351953569 		Uiso   ? 		O 		-0.97598
O 1.0  		0.617749478024221 		0.26867209735989794  0.4886044156828583 		Uiso   ? 		O 		-0.97598
O 1.0  		0.6181430175813833 		0.7662675434291885  0.4886044156828583 		Uiso   ? 		O 		-0.97598
O 1.0  		0.16933924726287616 		0.3170085386200805  0.48973577178284755 		Uiso   ? 		O 		-0.95788
O 1.0  		0.1710493948222957 		0.8168122485032879  0.4886044156828583 		Uiso   ? 		O 		-0.95788
O 1.0  		0.6693221462773711 		0.3216704288939052  0.4883215766578609 		Uiso   ? 		O 		-0.95788
O 1.0  		0.6672227448345955 		0.8185297870252233  0.48959435227034886 		Uiso   ? 		O 		-0.95788
O 1.0  		0.16977852778529226 		0.266463833545981  0.48959435227034886 		Uiso   ? 		O 		-0.91942
O 1.0  		0.17148867534471185 		0.7662675434291885  0.48931151324535155 		Uiso   ? 		O 		-0.91942
O 1.0  		0.671248858006094 		0.2711257238198057  0.4894529327578502 		Uiso   ? 		O 		-0.91942
O 1.0  		0.6705230056335921 		0.7694572578270685  0.48846299617035965 		Uiso   ? 		O 		-0.91942
O 1.0  		0.06302415341732878 		0.21444695259593682  0.47502814248298725 		Uiso   ? 		O 		-0.56854
O 1.0  		0.06273207901233391 		0.714496025125135  0.47502814248298725 		Uiso   ? 		O 		-0.56854
O 1.0  		0.5632348167038896 		0.21616449111787223  0.47785653273296036 		Uiso   ? 		O 		-0.56854
O 1.0  		0.5622548071907782 		0.7122877613112181  0.47474530345798993 		Uiso   ? 		O 		-0.56854
O 1.0  		0.06096596430687723 		0.26302875650211016  0.43896616679582984 		Uiso   ? 		O 		-0.59545
O 1.0  		0.057576347730388056 		0.7628324663853175  0.4423602350957976 		Uiso   ? 		O 		-0.59545
O 1.0  		0.5578818693493507 		0.2615565806261655  0.4396732643583231 		Uiso   ? 		O 		-0.59545
O 1.0  		0.5558570042202874 		0.7611149278633821  0.43939042533332584 		Uiso   ? 		O 		-0.59545
O 1.0  		0.1770327679219897 		0.21297477671999215  0.4410874594833097 		Uiso   ? 		O 		-0.59668
O 1.0  		0.17546575248301763 		0.7130238492491904  0.44080462045831237 		Uiso   ? 		O 		-0.59668
O 1.0  		0.6738500649281667 		0.21003042496810287  0.4422188155832989 		Uiso   ? 		O 		-0.59668
O 1.0  		0.6759699187325088 		0.7127784866031995  0.43910758630832847 		Uiso   ? 		O 		-0.59668
O 1.0  		0.2235363338976929 		0.3727058592599863  0.47828079127045636 		Uiso   ? 		O 		-0.56447
O 1.0  		0.22230448838993122 		0.8730002944351752  0.4771494351704671 		Uiso   ? 		O 		-0.56447
O 1.0  		0.7222771612236428 		0.37785847482579255  0.47545240102048325 		Uiso   ? 		O 		-0.56447
O 1.0  		0.7216082499191576 		0.875453920895083  0.47630091809547515 		Uiso   ? 		O 		-0.56447
O 1.0  		0.17258035950688586 		0.37491412307390326  0.47531098150798456 		Uiso   ? 		O 		-0.56220
O 1.0  		0.17429930468915333 		0.8764353714790462  0.4755938205329819 		Uiso   ? 		O 		-0.56220
O 1.0  		0.6708874088653289 		0.3783492001177741  0.473896786382998 		Uiso   ? 		O 		-0.56220
O 1.0  		0.6710027195592972 		0.8749631956031014  0.4771494351704671 		Uiso   ? 		O 		-0.56220
O 1.0  		0.0630996636530204 		0.26474629502404556  0.473896786382998 		Uiso   ? 		O 		-0.56216
O 1.0  		0.06420521004088353 		0.7650407301992345  0.4774322741954644 		Uiso   ? 		O 		-0.56216
O 1.0  		0.5611196865254218 		0.2654823829620179  0.4748867229704886 		Uiso   ? 		O 		-0.56216
O 1.0  		0.5600498665988616 		0.7618510158013545  0.4761594985829765 		Uiso   ? 		O 		-0.56216
O 1.0  		0.17291444185712787 		0.21493767788791837  0.47644233760797383 		Uiso   ? 		O 		-0.56871
O 1.0  		0.1734635305186032 		0.7132692118951811  0.47531098150798456 		Uiso   ? 		O 		-0.56871
O 1.0  		0.6744329155230981 		0.21714594170183532  0.4772908546829657 		Uiso   ? 		O 		-0.56871
O 1.0  		0.6754398538746648 		0.7159682010010797  0.47502814248298725 		Uiso   ? 		O 		-0.56871
O 1.0  		0.40958633990295423 		0.18892923741289627  0.47531098150798456 		Uiso   ? 		O 		-0.56910
O 1.0  		0.41294826539584145 		0.6911865737560114  0.47460388394549125 		Uiso   ? 		O 		-0.56910
O 1.0  		0.9117246888402174 		0.18770242418294242  0.4774322741954644 		Uiso   ? 		O 		-0.56910
O 1.0  		0.9075420526424264 		0.6867700461281775  0.47601807907047783 		Uiso   ? 		O 		-0.56910
O 1.0  		0.2959182842254239 		0.025763077829031308  0.47658375712047246 		Uiso   ? 		O 		-0.56804
O 1.0  		0.3038411113735277 		0.5294925900480911  0.47771511322046173 		Uiso   ? 		O 		-0.56804
O 1.0  		0.7997324828187388 		0.025763077829031308  0.47545240102048325 		Uiso   ? 		O 		-0.56804
O 1.0  		0.7976418789988111 		0.5243399744822849  0.47531098150798456 		Uiso   ? 		O 		-0.56804
O 1.0  		0.12312184751022442 		0.2249975463735401  0.47205833272051545 		Uiso   ? 		O 		-1.11899
O 1.0  		0.12487366203792402 		0.7270095200706645  0.47205833272051545 		Uiso   ? 		O 		-1.11899
O 1.0  		0.6239371119683418 		0.226224359603494  0.47375536687049935 		Uiso   ? 		O 		-1.11899
O 1.0  		0.6241510306986067 		0.7243105309647659  0.4721997522330141 		Uiso   ? 		O 		-1.11899
O 1.0  		0.2494816581805424 		0.1398567082147414  0.47601807907047783 		Uiso   ? 		O 		-0.56452
O 1.0  		0.2509135768767681 		0.6386789675139858  0.4772908546829657 		Uiso   ? 		O 		-0.56452
O 1.0  		0.7533527978418739 		0.13912062027676905  0.47757369370796304 		Uiso   ? 		O 		-0.56452
O 1.0  		0.7461207629177574 		0.6354892531161056  0.47502814248298725 		Uiso   ? 		O 		-0.56452
O 1.0  		0.29633446694723503 		0.02404553930709589  0.44066320094581374 		Uiso   ? 		O 		-0.59596
O 1.0  		0.3001695162299498 		0.5238492491903033  0.44250165460829627 		Uiso   ? 		O 		-0.59596
O 1.0  		0.7994630515783929 		0.026499165767003632  0.4405217814333151 		Uiso   ? 		O 		-0.59596
O 1.0  		0.7980909310660544 		0.523113161252331  0.44066320094581374 		Uiso   ? 		O 		-0.59596
O 1.0  		0.24777293917905827 		0.13813916969280596  0.4405217814333151 		Uiso   ? 		O 		-0.59474
O 1.0  		0.24641841391241565 		0.6381882422220042  0.44250165460829627 		Uiso   ? 		O 		-0.59474
O 1.0  		0.7471577134988854 		0.1386298949847875  0.4423602350957976 		Uiso   ? 		O 		-0.59474
O 1.0  		0.7441514102987752 		0.636225341054078  0.44080462045831237 		Uiso   ? 		O 		-0.59474
O 1.0  		0.08374688782136609 		0.29541662577289235  0.41492484967105825 		Uiso   ? 		O 		-0.60596
O 1.0  		0.0802915325540125 		0.7942388850721367  0.4176118204085327 		Uiso   ? 		O 		-0.60596
O 1.0  		0.5797799628290892 		0.29345372460496616  0.4152076886960555 		Uiso   ? 		O 		-0.60596
O 1.0  		0.5793170652200449 		0.7957110609480813  0.41704614235853804 		Uiso   ? 		O 		-0.60596
O 1.0  		0.14598928637022318 		0.20316027088036118  0.4173289813835354 		Uiso   ? 		O 		-0.60576
O 1.0  		0.14242004896683663 		0.7034547060555502  0.4160562057710475 		Uiso   ? 		O 		-0.60576
O 1.0  		0.644099119656073 		0.20365099617234272  0.4164804643085434 		Uiso   ? 		O 		-0.60576
O 1.0  		0.6433820649064191 		0.7037000687015409  0.41492484967105825 		Uiso   ? 		O 		-0.60576
O 1.0  		0.22556214062370195 		0.3474335067229365  0.5028877864452226 		Uiso   ? 		O 		-0.54353
O 1.0  		0.23031288928659924 		0.848218667190107  0.4999179766827508 		Uiso   ? 		O 		-0.54353
O 1.0  		0.727645869638908 		0.3533222102267151  0.4997765571702521 		Uiso   ? 		O 		-0.54353
O 1.0  		0.7254237884372514 		0.8499362057120424  0.5000593961952494 		Uiso   ? 		O 		-0.54353
O 1.0  		0.08626390054388823 		0.2949259004809108  0.4980795230202682 		Uiso   ? 		O 		-0.55376
O 1.0  		0.08973970817280841 		0.7957110609480813  0.5000593961952494 		Uiso   ? 		O 		-0.55376
O 1.0  		0.5867287209710588 		0.2988517028167632  0.4976552644827723 		Uiso   ? 		O 		-0.55376
O 1.0  		0.586335717383808 		0.7910491706742566  0.5000593961952494 		Uiso   ? 		O 		-0.55376
O 1.0  		0.22346400507095102 		0.26376484444008247  0.4772908546829657 		Uiso   ? 		O 		-0.56331
O 1.0  		0.22417744045958732 		0.764550004907253  0.47630091809547515 		Uiso   ? 		O 		-0.56331
O 1.0  		0.7221062243606045 		0.2674452841299441  0.47771511322046173 		Uiso   ? 		O 		-0.56331
O 1.0  		0.724780214745375 		0.7657768181372069  0.4761594985829765 		Uiso   ? 		O 		-0.56331
O 1.0  		0.1404251960673347 		0.20733143586220434  0.4997765571702521 		Uiso   ? 		O 		-0.56947
O 1.0  		0.1423149644536516 		0.7066444204534302  0.49921087912025747 		Uiso   ? 		O 		-0.56947
O 1.0  		0.6445199446698031 		0.21469231524192758  0.501473591320236 		Uiso   ? 		O 		-0.56947
O 1.0  		0.6468499675005155 		0.7110609480812642  0.49935229863275615 		Uiso   ? 		O 		-0.56947
O 1.0  		0.381947343400379 		0.19187358916478559  0.49921087912025747 		Uiso   ? 		O 		-0.56619
O 1.0  		0.3880563670338137 		0.6970752772597901  0.49864520107026283 		Uiso   ? 		O 		-0.56619
O 1.0  		0.8854439673081795 		0.19506330356266566  0.4997765571702521 		Uiso   ? 		O 		-0.56619
O 1.0  		0.8817585266228005 		0.6904504858180391  0.5003422352202467 		Uiso   ? 		O 		-0.56619
O 1.0  		0.32358416055753253 		0.051771518304053396  0.5003422352202467 		Uiso   ? 		O 		-0.55223
O 1.0  		0.3346045298771307 		0.555746393169104  0.5011907522952387 		Uiso   ? 		O 		-0.55223
O 1.0  		0.8291223522520681 		0.05054470507409952  0.4999179766827508 		Uiso   ? 		O 		-0.55223
O 1.0  		0.8269090686732595 		0.5488762390813623  0.49935229863275615 		Uiso   ? 		O 		-0.55223
O 1.0  		0.12281917362244553 		0.3140641868681912  0.4714926546705208 		Uiso   ? 		O 		-1.09612
O 1.0  		0.1244483083912643 		0.8158307979193249  0.4731896888205047 		Uiso   ? 		O 		-1.09612
O 1.0  		0.6227604056686604 		0.316517813328099  0.47078555710802755 		Uiso   ? 		O 		-1.09612
O 1.0  		0.620268893226658 		0.8138678967513987  0.4727654302830087 		Uiso   ? 		O 		-1.09612
O 1.0  		0.24435501421510034 		0.11090391598783003  0.5003422352202467 		Uiso   ? 		O 		-0.56374
O 1.0  		0.24641560580546665 		0.6080086367651389  0.5002008157077481 		Uiso   ? 		O 		-0.56374
O 1.0  		0.740828343667219 		0.10599666306801453  0.49949371814525484 		Uiso   ? 		O 		-0.56374
O 1.0  		0.7410510600203317 		0.6058003729512219  0.49906945960775884 		Uiso   ? 		O 		-0.56374
O 1.0  		0.331084734133971 		0.04637354009225636  0.4180360789460287 		Uiso   ? 		O 		-0.60541
O 1.0  		0.3313972609005325 		0.5459318873294731  0.4181774984585273 		Uiso   ? 		O 		-0.60541
O 1.0  		0.830322756972333 		0.04784571596820101  0.4160562057710475 		Uiso   ? 		O 		-0.60541
O 1.0  		0.8289594340828426 		0.5461772499754638  0.4164804643085434 		Uiso   ? 		O 		-0.60541
O 1.0  		0.23511700762267457 		0.10305231131612523  0.41775323992103136 		Uiso   ? 		O 		-0.60655
O 1.0  		0.2369104891186543 		0.6072725488271666  0.41789465943353 		Uiso   ? 		O 		-0.60655
O 1.0  		0.7374044291873623 		0.10722347629796841  0.41789465943353 		Uiso   ? 		O 		-0.60655
O 1.0  		0.7351911456085537 		0.6055550103052312  0.4167633033335408 		Uiso   ? 		O 		-0.60655
O 1.0  		0.26151049138474347 		0.36068308960643836  0.4611690302581189 		Uiso   ? 		O 		-0.58017
O 1.0  		0.2613739660840616 		0.8614682500736089  0.4600376741581297 		Uiso   ? 		O 		-0.58017
O 1.0  		0.7591231291581815 		0.3648542545882815  0.4587648985456418 		Uiso   ? 		O 		-0.58017
O 1.0  		0.7608902177856174 		0.8639218765335166  0.45777496195815115 		Uiso   ? 		O 		-0.58017
O 1.0  		0.07820503505609216 		0.3157817253901266  0.45551224975817267 		Uiso   ? 		O 		-0.58231
O 1.0  		0.07537187620599078 		0.8175483364412602  0.4600376741581297 		Uiso   ? 		O 		-0.58231
O 1.0  		0.5741570972732146 		0.3157817253901266  0.4560779278081673 		Uiso   ? 		O 		-0.58231
O 1.0  		0.5734312449007127 		0.8141132593973894  0.4583406400081458 		Uiso   ? 		O 		-0.58231
O 1.0  		0.1239050955866988 		0.17641574246736677  0.4583406400081458 		Uiso   ? 		O 		-0.58341
O 1.0  		0.12161959684013732 		0.6784277161644912  0.45650218634566325 		Uiso   ? 		O 		-0.58341
O 1.0  		0.6226195300441051 		0.17641574246736677  0.4611690302581189 		Uiso   ? 		O 		-0.58341
O 1.0  		0.6232343573964448 		0.6757287270585927  0.4576335424456525 		Uiso   ? 		O 		-0.58341
O 1.0  		0.3956569281955624 		0.2252429090195309  0.45621934732066594 		Uiso   ? 		O 		-0.58303
O 1.0  		0.39823463168999584 		0.7284816959466092  0.4566436058581619 		Uiso   ? 		O 		-0.58303
O 1.0  		0.8972652122749813 		0.22720581018745709  0.45862347903314304 		Uiso   ? 		O 		-0.58303
O 1.0  		0.8944056605563363 		0.7238198056727845  0.45805780098314847 		Uiso   ? 		O 		-0.58303
O 1.0  		0.3474353586345375 		0.038276572774560806  0.4579163814706498 		Uiso   ? 		O 		-0.58188
O 1.0  		0.3553012447146249 		0.542742172931593  0.45989625464563094 		Uiso   ? 		O 		-0.58188
O 1.0  		0.8524522830940768 		0.041957012464422426  0.4583406400081458 		Uiso   ? 		O 		-0.58188
O 1.0  		0.8499366989294901 		0.540533909117676  0.45735070342065515 		Uiso   ? 		O 		-0.58188
O 1.0  		0.06156079393360637 		0.21322013936598294  0.44080462045831237 		Uiso   ? 		O 		-0.59447
O 1.0  		0.05992803980376993 		0.7122877613112181  0.440946039970811 		Uiso   ? 		O 		-0.59447
O 1.0  		0.5595062804922953 		0.21125723819805675  0.44179455704580295 		Uiso   ? 		O 		-0.59447
O 1.0  		0.558609604915744 		0.7117970360192365  0.4410874594833097 		Uiso   ? 		O 		-0.59447
O 1.0  		0.2097427008869816 		0.08587692609677103  0.45805780098314847 		Uiso   ? 		O 		-0.58184
O 1.0  		0.21337405762021483 		0.5873981745019139  0.4621589668456095 		Uiso   ? 		O 		-0.58184
O 1.0  		0.713622638171161 		0.08685837668073412  0.4601790936706283 		Uiso   ? 		O 		-0.58184
O 1.0  		0.7086381847292207 		0.5834723721660615  0.45678502537066057 		Uiso   ? 		O 		-0.58184
O 1.0  		0.20911305407086153 		0.03999411129649623  0.4587648985456418 		Uiso   ? 		O 		-0.57922
O 1.0  		0.21228656111400349 		0.5410246344096575  0.4614518692831162 		Uiso   ? 		O 		-0.57922
O 1.0  		0.7140313704941044 		0.04220237511041319  0.4596134156206337 		Uiso   ? 		O 		-0.57922
O 1.0  		0.7089811783612996 		0.5378349200117775  0.4579163814706498 		Uiso   ? 		O 		-0.57922
O 1.0  		0.3938402029149551 		0.08391402492884485  0.4596134156206337 		Uiso   ? 		O 		-0.58115
O 1.0  		0.4000390369618385 		0.5888703503778585  0.4593305765956364 		Uiso   ? 		O 		-0.58115
O 1.0  		0.8973368268227555 		0.0871037393267249  0.45904773757063905 		Uiso   ? 		O 		-0.58115
O 1.0  		0.8957610137609355 		0.5854352733339877  0.4601790936706283 		Uiso   ? 		O 		-0.58115
O 1.0  		0.21394458820638163 		0.3135734615762097  0.4731896888205047 		Uiso   ? 		O 		-1.09728
O 1.0  		0.2136525138013867 		0.8136225341054079  0.4726240107705101 		Uiso   ? 		O 		-1.09728
O 1.0  		0.7120391473924951 		0.3170085386200805  0.4727654302830087 		Uiso   ? 		O 		-1.09728
O 1.0  		0.7122201967773278 		0.8146039846893709  0.47234117174551277 		Uiso   ? 		O 		-1.09728
O 1.0  		0.351590449732749 		0.22720581018745709  0.45904773757063905 		Uiso   ? 		O 		-0.58082
O 1.0  		0.3505382250518846 		0.7270095200706645  0.4589063180581404 		Uiso   ? 		O 		-0.58082
O 1.0  		0.8520048055687917 		0.22720581018745709  0.45805780098314847 		Uiso   ? 		O 		-0.58082
O 1.0  		0.8491540514729944 		0.7255373441947198  0.4589063180581404 		Uiso   ? 		O 		-0.58082
O 1.0  		0.07843219870817943 		0.17641574246736677  0.45735070342065515 		Uiso   ? 		O 		-0.58119
O 1.0  		0.0758684710984241 		0.6774462655805281  0.4569264448831592 		Uiso   ? 		O 		-0.58119
O 1.0  		0.5770896920975692 		0.1771518304053391  0.46201754733311085 		Uiso   ? 		O 		-0.58119
O 1.0  		0.5780966304491358 		0.6759740897045834  0.4569264448831592 		Uiso   ? 		O 		-0.58119
O 1.0  		0.12313124575305101 		0.36313671606634607  0.4569264448831592 		Uiso   ? 		O 		-0.57614
O 1.0  		0.12098370086510685 		0.862449700657572  0.4583406400081458 		Uiso   ? 		O 		-0.57614
O 1.0  		0.6194666213465524 		0.36092845225242914  0.4548051521956794 		Uiso   ? 		O 		-0.57614
O 1.0  		0.6192972267004384 		0.861222887427618  0.4583406400081458 		Uiso   ? 		O 		-0.57614
O 1.0  		0.2618206156713902 		0.3145549121601728  0.4610276107456202 		Uiso   ? 		O 		-0.57942
O 1.0  		0.26254284868287436 		0.8170576111492788  0.45819922049564715 		Uiso   ? 		O 		-0.57942
O 1.0  		0.7603160834795785 		0.31921680243399747  0.4589063180581404 		Uiso   ? 		O 		-0.57942
O 1.0  		0.7605628715552757 		0.8177936990872511  0.4583406400081458 		Uiso   ? 		O 		-0.57942
O 1.0  		0.363466200962619 		0.1396113455687506  0.4569264448831592 		Uiso   ? 		O 		-0.91981
O 1.0  		0.36664850562860885 		0.6423594072038473  0.4569264448831592 		Uiso   ? 		O 		-0.91981
O 1.0  		0.8668970861795551 		0.14181960938266758  0.4572092839081565 		Uiso   ? 		O 		-0.91981
O 1.0  		0.8626399136680519 		0.6381882422220042  0.45819922049564715 		Uiso   ? 		O 		-0.91981
O 1.0  		0.2963281041293355 		0.14132888409068603  0.4576335424456525 		Uiso   ? 		O 		-0.91758
O 1.0  		0.29940300313618096 		0.6408872313279027  0.45777496195815115 		Uiso   ? 		O 		-0.91758
O 1.0  		0.7984993224120308 		0.14059279615271372  0.4579163814706498 		Uiso   ? 		O 		-0.91758
O 1.0  		0.794161137109927 		0.6389243301599765  0.4572092839081565 		Uiso   ? 		O 		-0.91758
O 1.0  		0.29609887897430054 		0.07287270585925999  0.4587648985456418 		Uiso   ? 		O 		-0.92220
O 1.0  		0.29960755594865285 		0.574148591618412  0.45862347903314304 		Uiso   ? 		O 		-0.92220
O 1.0  		0.7991288555691618 		0.07385415644322309  0.4572092839081565 		Uiso   ? 		O 		-0.92220
O 1.0  		0.7950513038845561 		0.5697320639905782  0.4576335424456525 		Uiso   ? 		O 		-0.92220
O 1.0  		0.17632319589623727 		0.32927667091961926  0.45805780098314847 		Uiso   ? 		O 		-0.90762
O 1.0  		0.1752381018699407 		0.8285896555108451  0.45749212293315383 		Uiso   ? 		O 		-0.90762
O 1.0  		0.6757737089069288 		0.3307488467955639  0.45650218634566325 		Uiso   ? 		O 		-0.90762
O 1.0  		0.674500196430887 		0.8288350181568359  0.45735070342065515 		Uiso   ? 		O 		-0.90762
O 1.0  		0.1767402388810388 		0.2625380312101286  0.4572092839081565 		Uiso   ? 		O 		-0.92012
O 1.0  		0.17738793557881066 		0.7623417410933361  0.45819922049564715 		Uiso   ? 		O 		-0.92012
O 1.0  		0.6759365947511206 		0.2618019432721563  0.45777496195815115 		Uiso   ? 		O 		-0.92012
O 1.0  		0.6756773896915579 		0.7623417410933361  0.45678502537066057 		Uiso   ? 		O 		-0.92012
O 1.0  		0.2797047533204843 		0.09618215722838357  0.39654031304623283 		Uiso   ? 		O 		-0.55228
O 1.0  		0.2826745678141446 		0.5989302188634802  0.39668173255873157 		Uiso   ? 		O 		-0.55228
O 1.0  		0.7839374557815698 		0.10084404750220827  0.39654031304623283 		Uiso   ? 		O 		-0.55228
O 1.0  		0.7815116820304318 		0.599175581509471  0.39583321548373956 		Uiso   ? 		O 		-0.55228
O 1.0  		0.229021618896951 		0.264255569732064  0.440946039970811 		Uiso   ? 		O 		-0.59170
O 1.0  		0.2269398126998712 		0.764550004907253  0.4405217814333151 		Uiso   ? 		O 		-0.59170
O 1.0  		0.727287001287114 		0.2654823829620179  0.44151171802080563 		Uiso   ? 		O 		-0.59170
O 1.0  		0.7254417569849481 		0.764550004907253  0.44038036192081637 		Uiso   ? 		O 		-0.59170
O 1.0  		0.10998545542413424 		0.26204730591814707  0.4576335424456525 		Uiso   ? 		O 		-0.91298
O 1.0  		0.10948968846965768 		0.7638139169692807  0.45678502537066057 		Uiso   ? 		O 		-0.91298
O 1.0  		0.607400877124979 		0.2632741191481009  0.45777496195815115 		Uiso   ? 		O 		-0.91298
O 1.0  		0.6079828351318866 		0.7620963784473452  0.45749212293315383 		Uiso   ? 		O 		-0.91298
O 1.0  		0.14437794184004457 		0.3567572872705859  0.4154905277210529 		Uiso   ? 		O 		-0.58586
O 1.0  		0.14129062584933355 		0.8563156345078027  0.4171875618710367 		Uiso   ? 		O 		-0.58586
O 1.0  		0.6411711671236373 		0.3550397487486506  0.413369235033573 		Uiso   ? 		O 		-0.58586
O 1.0  		0.6432581515825473 		0.8572970850917657  0.4160562057710475 		Uiso   ? 		O 		-0.58586
O 1.0  		0.17748522871616082 		0.3783492001177741  0.4396732643583231 		Uiso   ? 		O 		-0.59088
O 1.0  		0.17534648145106452 		0.8793797232309354  0.44038036192081637 		Uiso   ? 		O 		-0.59088
O 1.0  		0.6732576701063859 		0.37883992540975564  0.4381176497208379 		Uiso   ? 		O 		-0.59088
O 1.0  		0.6732109552191528 		0.8793797232309354  0.44193597655830164 		Uiso   ? 		O 		-0.59088
O 1.0  		0.12512406947463886 		0.22475218372754935  0.44320875217078953 		Uiso   ? 		O 		-1.12709
O 1.0  		0.1247838516244753 		0.7272548827166553  0.44250165460829627 		Uiso   ? 		O 		-1.12709
O 1.0  		0.6217617456539185 		0.2222985572676416  0.4441986887582801 		Uiso   ? 		O 		-1.12709
O 1.0  		0.6224751810425548 		0.7230837177348122  0.4422188155832989 		Uiso   ? 		O 		-1.12709
O 1.0  		0.3911111869810931 		0.1082049268819315  0.41747040089603404 		Uiso   ? 		O 		-0.58845
O 1.0  		0.3922736744369727 		0.6077632741191481  0.4154905277210529 		Uiso   ? 		O 		-0.58845
O 1.0  		0.8943777254708682 		0.10795956423594073  0.4171875618710367 		Uiso   ? 		O 		-0.58845
O 1.0  		0.8915028996524867 		0.6075179114731574  0.41662188382104215 		Uiso   ? 		O 		-0.58845
O 1.0  		0.4137518354910053 		0.13691235646285213  0.4426430741207949 		Uiso   ? 		O 		-0.59292
O 1.0  		0.4147282256430991 		0.641623319265875  0.43953184484582447 		Uiso   ? 		O 		-0.59292
O 1.0  		0.9156712177790505 		0.14034743350672294  0.440946039970811 		Uiso   ? 		O 		-0.59292
O 1.0  		0.9127130580241087 		0.6354892531161056  0.4423602350957976 		Uiso   ? 		O 		-0.59292
O 1.0  		0.23784954594245342 		0.35798410050053986  0.41775323992103136 		Uiso   ? 		O 		-0.60540
O 1.0  		0.23630660222606556 		0.8568063597997841  0.4163390447960448 		Uiso   ? 		O 		-0.60540
O 1.0  		0.7363755619501144 		0.3567572872705859  0.4156319472335515 		Uiso   ? 		O 		-0.60540
O 1.0  		0.7354219453055466 		0.858033173029738  0.41619762528354615 		Uiso   ? 		O 		-0.60540
O 1.0  		0.2272079290412708 		0.3783492001177741  0.44207739607080027 		Uiso   ? 		O 		-0.59609
O 1.0  		0.22676030553196283 		0.8776621847089999  0.4416531375333043 		Uiso   ? 		O 		-0.59609
O 1.0  		0.7235521022576201 		0.37785847482579255  0.43910758630832847 		Uiso   ? 		O 		-0.59609
O 1.0  		0.7235382567158191 		0.8788889979389538  0.4400975228958191 		Uiso   ? 		O 		-0.59609
O 1.0  		0.24670157703557372 		0.023800176661105114  0.44179455704580295 		Uiso   ? 		O 		-0.59182
O 1.0  		0.2452484437326346 		0.5223770733143587  0.4426430741207949 		Uiso   ? 		O 		-0.59182
O 1.0  		0.7471728739396328 		0.023064088723132793  0.44066320094581374 		Uiso   ? 		O 		-0.59182
O 1.0  		0.7458993614635909 		0.5211502600844048  0.4396732643583231 		Uiso   ? 		O 		-0.59182
O 1.0  		0.23517713009964084 		0.043674550986357835  0.41789465943353 		Uiso   ? 		O 		-0.58769
O 1.0  		0.23875154576485752 		0.5459318873294731  0.41704614235853804 		Uiso   ? 		O 		-0.58769
O 1.0  		0.7395565840421916 		0.047354990676219455  0.41619762528354615 		Uiso   ? 		O 		-0.58769
O 1.0  		0.7374002415313995 		0.5449504367455099  0.41577336674605014 		Uiso   ? 		O 		-0.58769
O 1.0  		0.33629287785100354 		0.09716360781234666  0.3968231520712302 		Uiso   ? 		O 		-0.55222
O 1.0  		0.3365901305178286 		0.5996663068014526  0.3963988935337342 		Uiso   ? 		O 		-0.55222
O 1.0  		0.8421926323452932 		0.10133477279418981  0.3968231520712302 		Uiso   ? 		O 		-0.55222
O 1.0  		0.8375762181799954 		0.5986848562174895  0.3959746349962382 		Uiso   ? 		O 		-0.55222
O 1.0  		0.3885938009565703 		0.1975169300225734  0.4156319472335515 		Uiso   ? 		O 		-0.60584
O 1.0  		0.3912613148644524 		0.7005103543036608  0.4152076886960555 		Uiso   ? 		O 		-0.60584
O 1.0  		0.8928505751402401 		0.2009520070664442  0.4164804643085434 		Uiso   ? 		O 		-0.60584
O 1.0  		0.8891410627322771 		0.6975660025517716  0.41619762528354615 		Uiso   ? 		O 		-0.60584
O 1.0  		0.411768182694266 		0.18819314947492397  0.43910758630832847 		Uiso   ? 		O 		-0.59609
O 1.0  		0.4151060364645689 		0.691677299047993  0.43953184484582447 		Uiso   ? 		O 		-0.59609
O 1.0  		0.914504656326197 		0.19113750122681325  0.4400975228958191 		Uiso   ? 		O 		-0.59609
O 1.0  		0.9110317058131477 		0.6865246834821868  0.44066320094581374 		Uiso   ? 		O 		-0.59609
O 1.0  		0.32962893870810545 		0.20070664442045344  0.4167633033335408 		Uiso   ? 		O 		-0.58791
O 1.0  		0.33030950475130955 		0.7010010795956425  0.4164804643085434 		Uiso   ? 		O 		-0.58791
O 1.0  		0.8319557060951138 		0.20070664442045344  0.4159147862585488 		Uiso   ? 		O 		-0.58791
O 1.0  		0.828736912722674 		0.6983020904897439  0.4154905277210529 		Uiso   ? 		O 		-0.58791
O 1.0  		0.24650668210894 		0.027235253704975957  0.4772908546829657 		Uiso   ? 		O 		-0.56520
O 1.0  		0.25226294056546844 		0.5287565021101187  0.4781393717579577 		Uiso   ? 		O 		-0.56520
O 1.0  		0.752544390461847 		0.028707429580920606  0.47630091809547515 		Uiso   ? 		O 		-0.56520
O 1.0  		0.7452378192240181 		0.5223770733143587  0.4758766595579792 		Uiso   ? 		O 		-0.56520
O 1.0  		0.2427656799045583 		0.055451957993915016  0.5003422352202467 		Uiso   ? 		O 		-0.54567
O 1.0  		0.2487825719785849 		0.55451957993915  0.501473591320236 		Uiso   ? 		O 		-0.54567
O 1.0  		0.7423365515281712 		0.050790067720090294  0.49963513765775347 		Uiso   ? 		O 		-0.54567
O 1.0  		0.7378340194989064 		0.5466679752674454  0.4987866205827616 		Uiso   ? 		O 		-0.54567
O 1.0  		0.38098387387702853 		0.10452448719206989  0.5004836547327455 		Uiso   ? 		O 		-0.56995
O 1.0  		0.3897654593372985 		0.6099715379330651  0.49864520107026283 		Uiso   ? 		O 		-0.56995
O 1.0  		0.8854860075784602 		0.10845028952792228  0.5004836547327455 		Uiso   ? 		O 		-0.56995
O 1.0  		0.8819889853428265 		0.6050642850132497  0.5009079132702413 		Uiso   ? 		O 		-0.56995
O 1.0  		0.3315959701811283 		0.193591127686721  0.5002008157077481 		Uiso   ? 		O 		-0.55884
O 1.0  		0.3316478633301917 		0.6956031013838454  0.5004836547327455 		Uiso   ? 		O 		-0.55884
O 1.0  		0.8280868948789427 		0.19211895181077634  0.501473591320236 		Uiso   ? 		O 		-0.55884
O 1.0  		0.8289887487173242 		0.6941309255079008  0.500625074245244 		Uiso   ? 		O 		-0.55884
O 1.0  		0.0869105419857254 		0.2078221611541859  0.4983623620452656 		Uiso   ? 		O 		-0.55496
O 1.0  		0.08782766992384328 		0.706889783099421  0.4976552644827723 		Uiso   ? 		O 		-0.55496
O 1.0  		0.590015054894299 		0.2115026008440475  0.5017564303452333 		Uiso   ? 		O 		-0.55496
O 1.0  		0.589672515898176 		0.7076258710373933  0.4983623620452656 		Uiso   ? 		O 		-0.55496
O 1.0  		0.14114660114086217 		0.34816959466090885  0.49822094253276694 		Uiso   ? 		O 		-0.54469
O 1.0  		0.14217113473812448 		0.8504269310040241  0.4987866205827616 		Uiso   ? 		O 		-0.54469
O 1.0  		0.6409498793284598 		0.3533222102267151  0.49779668399527094 		Uiso   ? 		O 		-0.54469
O 1.0  		0.6380157912961024 		0.8472372166061439  0.49935229863275615 		Uiso   ? 		O 		-0.54469
O 1.0  		0.22673517855344383 		0.2919815487290215  0.5020392693702306 		Uiso   ? 		O 		-0.54282
O 1.0  		0.22900178383925113 		0.7937481597801551  0.5007664937577427 		Uiso   ? 		O 		-0.54282
O 1.0  		0.7282800450879579 		0.29934242810874473  0.5010493327827401 		Uiso   ? 		O 		-0.54282
O 1.0  		0.7284610944727905 		0.7969378741780353  0.49963513765775347 		Uiso   ? 		O 		-0.54282
O 1.0  		0.08330468553301189 		0.20316027088036118  0.4160562057710475 		Uiso   ? 		O 		-0.58949
O 1.0  		0.08158212098972678 		0.702473255471587  0.4163390447960448 		Uiso   ? 		O 		-0.58949
O 1.0  		0.5803673420569505 		0.20070664442045344  0.41662188382104215 		Uiso   ? 		O 		-0.58949
O 1.0  		0.5801169346202358 		0.7029639807635687  0.4159147862585488 		Uiso   ? 		O 		-0.58949
O 1.0  		0.23955264873003934 		0.29934242810874473  0.41775323992103136 		Uiso   ? 		O 		-0.58833
O 1.0  		0.23681577677027515 		0.7962017862400629  0.41577336674605014 		Uiso   ? 		O 		-0.58833
O 1.0  		0.7359931088367258 		0.2939444498969477  0.4160562057710475 		Uiso   ? 		O 		-0.58833
O 1.0  		0.736290361503551 		0.7964471488860536  0.4163390447960448 		Uiso   ? 		O 		-0.58833
O 1.0  		0.33744195771715013 		0.15555991755815096  0.39625747402123557 		Uiso   ? 		O 		-0.55222
O 1.0  		0.3363897330362857 		0.6553636274413583  0.39625747402123557 		Uiso   ? 		O 		-0.55222
O 1.0  		0.8421389863452154 		0.1560506428501325  0.39625747402123557 		Uiso   ? 		O 		-0.55222
O 1.0  		0.8374897028344854 		0.6529100009814507  0.3968231520712302 		Uiso   ? 		O 		-0.55222
O 1.0  		0.2577173363882867 		0.08833055255667878  0.47375536687049935 		Uiso   ? 		O 		-1.10355
O 1.0  		0.2634407254993831 		0.5893610756698401  0.4744624644329926 		Uiso   ? 		O 		-1.10355
O 1.0  		0.7622347441894547 		0.08931200314064187  0.4729068497955074 		Uiso   ? 		O 		-1.10355
O 1.0  		0.758860401712702 		0.5861713612719599  0.4719169132080168 		Uiso   ? 		O 		-1.10355
O 1.0  		0.34822935217781853 		0.08661301403474335  0.47333110833300335 		Uiso   ? 		O 		-1.11639
O 1.0  		0.35172275505243444 		0.5908332515457847  0.47333110833300335 		Uiso   ? 		O 		-1.11639
O 1.0  		0.8501968779110322 		0.08759446461870646  0.4730482693080061 		Uiso   ? 		O 		-1.11639
O 1.0  		0.848318764263434 		0.5861713612719599  0.47333110833300335 		Uiso   ? 		O 		-1.11639
O 1.0  		0.34963539729152376 		0.17739719305132987  0.4721997522330141 		Uiso   ? 		O 		-1.11954
O 1.0  		0.3525154013717354 		0.6803906173324173  0.4727654302830087 		Uiso   ? 		O 		-1.11954
O 1.0  		0.8505404721630898 		0.17837864363529296  0.4729068497955074 		Uiso   ? 		O 		-1.11954
O 1.0  		0.8471420579637527 		0.676464814996565  0.4729068497955074 		Uiso   ? 		O 		-1.11954
O 1.0  		0.2591390289037291 		0.08734910197271567  0.44434010827077874 		Uiso   ? 		O 		-1.12527
O 1.0  		0.25881408515330195 		0.5869074492099323  0.44434010827077874 		Uiso   ? 		O 		-1.12527
O 1.0  		0.7593080252220099 		0.08685837668073412  0.44349159119578685 		Uiso   ? 		O 		-1.12527
O 1.0  		0.7597344341246043 		0.5849445480420061  0.44320875217078953 		Uiso   ? 		O 		-1.12527
O 1.0  		0.2965503658464923 		0.1906467759348317  0.44080462045831237 		Uiso   ? 		O 		-0.59307
O 1.0  		0.2974434220620259 		0.6909412111100206  0.44080462045831237 		Uiso   ? 		O 		-0.59307
O 1.0  		0.7988354662652206 		0.18843851212091473  0.43981468387082173 		Uiso   ? 		O 		-0.59307
O 1.0  		0.7974568692759938 		0.6897143978800668  0.44023894240831773 		Uiso   ? 		O 		-0.59307
O 1.0  		0.34905524114455233 		0.08783982726469723  0.4436330107082855 		Uiso   ? 		O 		-1.12708
O 1.0  		0.35137878749837614 		0.5888703503778585  0.44320875217078953 		Uiso   ? 		O 		-1.12708
O 1.0  		0.8516032963267381 		0.08955736578663265  0.4429259131457922 		Uiso   ? 		O 		-1.12708
O 1.0  		0.8490789145393034 		0.5864167239179509  0.44320875217078953 		Uiso   ? 		O 		-1.12708
O 1.0  		0.3477799268085745 		0.17666110511335756  0.44278449363329353 		Uiso   ? 		O 		-1.12760
O 1.0  		0.351207590992326 		0.6798998920404358  0.44306733265829085 		Uiso   ? 		O 		-1.12760
O 1.0  		0.8511779426800783 		0.17837864363529296  0.44335017168328816 		Uiso   ? 		O 		-1.12760
O 1.0  		0.8475341689629796 		0.6759740897045834  0.44335017168328816 		Uiso   ? 		O 		-1.12760
O 1.0  		0.2813653288767998 		0.10035332221022672  0.5178782547700802 		Uiso   ? 		O 		-0.79092
O 1.0  		0.28629569836659446 		0.6006477573854156  0.5184439328200747 		Uiso   ? 		O 		-0.79092
O 1.0  		0.7830064823016509 		0.10280694867013446  0.5183025133075762 		Uiso   ? 		O 		-0.79092
O 1.0  		0.7769419827523671 		0.595985867111591  0.5177368352575815 		Uiso   ? 		O 		-0.79092
O 1.0  		0.40879882283656177 		0.135930905878889  0.47700801565796846 		Uiso   ? 		O 		-0.56753
O 1.0  		0.412905624505582 		0.6413779566198842  0.4751695619954859 		Uiso   ? 		O 		-0.56753
O 1.0  		0.9120172178811683 		0.13813916969280596  0.4758766595579792 		Uiso   ? 		O 		-0.56753
O 1.0  		0.9091095227173547 		0.6372067916380411  0.4781393717579577 		Uiso   ? 		O 		-0.56753
O 1.0  		0.33673545344135836 		0.1005986848562175  0.5184439328200747 		Uiso   ? 		O 		-0.74304
O 1.0  		0.3468336469038856 		0.6082539994111297  0.5177368352575815 		Uiso   ? 		O 		-0.74304
O 1.0  		0.8356864497936785 		0.09937187162626364  0.519575288920064 		Uiso   ? 		O 		-0.74304
O 1.0  		0.8291400288317192 		0.5932868780056925  0.5163226401325949 		Uiso   ? 		O 		-0.74304
O 1.0  		0.3408330028515747 		0.15384237903621553  0.5178782547700802 		Uiso   ? 		O 		-0.75101
O 1.0  		0.34429353638075844 		0.6575718912552754  0.5185853523325734 		Uiso   ? 		O 		-0.75101
O 1.0  		0.841492718205379 		0.15433310432819708  0.5183025133075762 		Uiso   ? 		O 		-0.75101
O 1.0  		0.8334435919373766 		0.6511924624595152  0.5175954157450828 		Uiso   ? 		O 		-0.75101
O 1.0  		0.13139185594636996 		0.2453626459907744  0.5175954157450828 		Uiso   ? 		O 		-0.83617
O 1.0  		0.13118079433197588 		0.7434488173520464  0.5174539962325841 		Uiso   ? 		O 		-0.83617
O 1.0  		0.6349148727227141 		0.25370497595446073  0.5175954157450828 		Uiso   ? 		O 		-0.83617
O 1.0  		0.6354134967930614 		0.7481107076258711  0.5177368352575815 		Uiso   ? 		O 		-0.83617
O 1.0  		0.13128126887827574 		0.3008146039846894  0.5171711572075869 		Uiso   ? 		O 		-0.82744
O 1.0  		0.13594220712772437 		0.8018451270978506  0.5173125767200856 		Uiso   ? 		O 		-0.82744
O 1.0  		0.6320243181686402 		0.3057218569045049  0.5167468986700909 		Uiso   ? 		O 		-0.82744
O 1.0  		0.6341659225496072 		0.8008636765138876  0.5178782547700802 		Uiso   ? 		O 		-0.82744
O 1.0  		0.18502368723195098 		0.29737952694081854  0.519575288920064 		Uiso   ? 		O 		-0.71793
O 1.0  		0.18865504396518415 		0.7989007753459614  0.5175954157450828 		Uiso   ? 		O 		-0.71793
O 1.0  		0.6898304426651202 		0.3074393954264403  0.5175954157450828 		Uiso   ? 		O 		-0.71793
O 1.0  		0.6894967012918453 		0.8052802041417215  0.5181610937950775 		Uiso   ? 		O 		-0.71793
O 1.0  		0.1376614766030708 		0.24855236038865441  0.39625747402123557 		Uiso   ? 		O 		-0.55212
O 1.0  		0.13423019305830147 		0.7461478064579449  0.3955503764587423 		Uiso   ? 		O 		-0.55212
O 1.0  		0.6349125515767547 		0.2473255471587006  0.39654031304623283 		Uiso   ? 		O 		-0.55212
O 1.0  		0.6355449741747903 		0.7500736087937973  0.39696457158372883 		Uiso   ? 		O 		-0.55212
O 1.0  		0.12476445451884352 		0.3145549121601728  0.44207739607080027 		Uiso   ? 		O 		-1.12153
O 1.0  		0.1225928379083151 		0.8150947099813525  0.44335017168328816 		Uiso   ? 		O 		-1.12153
O 1.0  		0.6222039479422727 		0.3145549121601728  0.44122887899580837 		Uiso   ? 		O 		-1.12153
O 1.0  		0.6217891937783968 		0.8143586220433802  0.4429259131457922 		Uiso   ? 		O 		-1.12153
O 1.0  		0.13605466070582198 		0.302286779860634  0.3955503764587423 		Uiso   ? 		O 		-0.55225
O 1.0  		0.13367055392296395 		0.8028265776818138  0.39583321548373956 		Uiso   ? 		O 		-0.55225
O 1.0  		0.6315641473325896 		0.2988517028167632  0.3954089569462436 		Uiso   ? 		O 		-0.55225
O 1.0  		0.6346172957628101 		0.8060162920796939  0.3951261179212463 		Uiso   ? 		O 		-0.55225
O 1.0  		0.19237335399599526 		0.30400431838256947  0.3959746349962382 		Uiso   ? 		O 		-0.55239
O 1.0  		0.1877898091761297 		0.8018451270978506  0.39654031304623283 		Uiso   ? 		O 		-0.55239
O 1.0  		0.6921743110376335 		0.3027775051526156  0.3955503764587423 		Uiso   ? 		O 		-0.55239
O 1.0  		0.6906160932215093 		0.8045441162037492  0.3959746349962382 		Uiso   ? 		O 		-0.55239
O 1.0  		0.29968298485038913 		0.0851408381587987  0.4894529327578502 		Uiso   ? 		O 		-0.95808
O 1.0  		0.305888295374161 		0.5854352733339877  0.49129138642033277 		Uiso   ? 		O 		-0.95808
O 1.0  		0.8021477060960147 		0.0824418490529002  0.49030144983284213 		Uiso   ? 		O 		-0.95808
O 1.0  		0.7999344225172063 		0.580773383060163  0.4887458351953569 		Uiso   ? 		O 		-0.95808
O 1.0  		0.35375507058036565 		0.1342133673569536  0.4891700937328529 		Uiso   ? 		O 		-0.88446
O 1.0  		0.3569461728692034 		0.6386789675139858  0.4886044156828583 		Uiso   ? 		O 		-0.88446
O 1.0  		0.8540226749349431 		0.1351948179409167  0.4891700937328529 		Uiso   ? 		O 		-0.88446
O 1.0  		0.851318672320611 		0.6325449013642164  0.4890286742203543 		Uiso   ? 		O 		-0.88446
O 1.0  		0.3015931889143845 		0.19138286387280404  0.47700801565796846 		Uiso   ? 		O 		-0.56806
O 1.0  		0.30104695736878007 		0.6892236725880853  0.4761594985829765 		Uiso   ? 		O 		-0.56806
O 1.0  		0.8018191263006819 		0.19015605064285016  0.4757352400454805 		Uiso   ? 		O 		-0.56806
O 1.0  		0.7966791237544284 		0.6860339581902052  0.4767251766329711 		Uiso   ? 		O 		-0.56806
O 1.0  		0.3024967956037804 		0.13666699381686134  0.4890286742203543 		Uiso   ? 		O 		-0.94925
O 1.0  		0.30514671426596673 		0.636225341054078  0.48959435227034886 		Uiso   ? 		O 		-0.94925
O 1.0  		0.8026810660217977 		0.1332319167729905  0.49030144983284213 		Uiso   ? 		O 		-0.94925
O 1.0  		0.8005992598247178 		0.6335263519481794  0.48888725470785555 		Uiso   ? 		O 		-0.94925
O 1.0  		0.29959085329098106 		0.07900677200902935  0.42637983018344944 		Uiso   ? 		O 		-0.97459
O 1.0  		0.3022583671988632 		0.5820001962901168  0.42609699115845207 		Uiso   ? 		O 		-0.97459
O 1.0  		0.8031203465442137 		0.08268721169889097  0.4249656350584628 		Uiso   ? 		O 		-0.97459
O 1.0  		0.8010866837923025 		0.5805280204141722  0.42524847408346017 		Uiso   ? 		O 		-0.97459
O 1.0  		0.35528416875495245 		0.13642163117087058  0.42553131310845743 		Uiso   ? 		O 		-0.97348
O 1.0  		0.35706005500523635 		0.6372067916380411  0.4253898935959588 		Uiso   ? 		O 		-0.97348
O 1.0  		0.8598344459015527 		0.13789380704681523  0.4262384106709507 		Uiso   ? 		O 		-0.97348
O 1.0  		0.855643012080914 		0.6352438904701149  0.4262384106709507 		Uiso   ? 		O 		-0.97348
O 1.0  		0.21383070607034865 		0.3150456374521543  0.28807154695976334 		Uiso   ? 		O 		-1.13799
O 1.0  		0.21356270338793804 		0.8138678967513987  0.2887786445222566 		Uiso   ? 		O 		-1.13799
O 1.0  		0.7149811404596764 		0.316517813328099  0.28920290305975255 		Uiso   ? 		O 		-1.13799
O 1.0  		0.7122859354681923 		0.815585435273334  0.28835438598476065 		Uiso   ? 		O 		-1.13799
O 1.0  		0.3004288349485016 		0.135930905878889  0.11766103439888222 		Uiso   ? 		O 		-0.98200
O 1.0  		0.3016329893726613 		0.6376975169300226  0.11497406366140774 		Uiso   ? 		O 		-0.98200
O 1.0  		0.8012112300611867 		0.13666699381686134  0.11582258073639969 		Uiso   ? 		O 		-0.98200
O 1.0  		0.8022510377581855 		0.6359799784080872  0.1163882587863943 		Uiso   ? 		O 		-0.98200
O 1.0  		0.30146721408756494 		0.1371577191088429  0.27081836643492724 		Uiso   ? 		O 		-0.98194
O 1.0  		0.3019112182358552 		0.6386789675139858  0.27138404448492187 		Uiso   ? 		O 		-0.98194
O 1.0  		0.8017348184421423 		0.13813916969280596  0.27039410789743124 		Uiso   ? 		O 		-0.98194
O 1.0  		0.7996770839676468 		0.6372067916380411  0.2702526883849326 		Uiso   ? 		O 		-0.98194
O 1.0  		0.11587176270445608 		0.2674452841299441  0.11695393683638894 		Uiso   ? 		O 		-0.98200
O 1.0  		0.11733655074611388 		0.7667582687211699  0.11582258073639969 		Uiso   ? 		O 		-0.98200
O 1.0  		0.6156727197460943 		0.2662184708999902  0.11681251732389028 		Uiso   ? 		O 		-0.98200
O 1.0  		0.6163620834121463 		0.7682304445971145  0.11610541976139699 		Uiso   ? 		O 		-0.98200
O 1.0  		0.11750594539222795 		0.266463833545981  0.2702526883849326 		Uiso   ? 		O 		-0.98194
O 1.0  		0.1151459103319542 		0.7657768181372069  0.27067694692242855 		Uiso   ? 		O 		-0.98194
O 1.0  		0.6159838179547205 		0.26769064677593485  0.27209114204741514 		Uiso   ? 		O 		-0.98194
O 1.0  		0.615748684617742 		0.7670036313671607  0.27110120545992455 		Uiso   ? 		O 		-0.98194
O 1.0  		0.1715234112001473 		0.3226518794778683  0.11624683927389565 		Uiso   ? 		O 		-0.98200
O 1.0  		0.17083042817307767 		0.8214741387771126  0.11667109781139162 		Uiso   ? 		O 		-0.98200
O 1.0  		0.6700077602395283 		0.31921680243399747  0.1163882587863943 		Uiso   ? 		O 		-0.98200
O 1.0  		0.6713105226999845 		0.8224555893610757  0.11525690268640505 		Uiso   ? 		O 		-0.98200
O 1.0  		0.17352563316456177 		0.32240651683187754  0.27039410789743124 		Uiso   ? 		O 		-0.98194
O 1.0  		0.17173732993041227 		0.8207380508391403  0.27110120545992455 		Uiso   ? 		O 		-0.98194
O 1.0  		0.6710461393785917 		0.32044361566395135  0.2718083030224178 		Uiso   ? 		O 		-0.98194
O 1.0  		0.6722831631481836 		0.8227009520070666  0.27039410789743124 		Uiso   ? 		O 		-0.98194
O 1.0  		0.2443313157945167 		0.023309451369123567  0.1329343417487371 		Uiso   ? 		O 		-0.61067
O 1.0  		0.24811822163206293 		0.5255667877122387  0.13067162954875863 		Uiso   ? 		O 		-0.61067
O 1.0  		0.7480885733198153 		0.02404553930709589  0.12954027344876937 		Uiso   ? 		O 		-0.61067
O 1.0  		0.7476080804650751 		0.5228677986063401  0.13180298564874787 		Uiso   ? 		O 		-0.61067
O 1.0  		0.057670232140810455 		0.21223868878201985  0.1661679271859214 		Uiso   ? 		O 		-0.61064
O 1.0  		0.05782720980305894 		0.7110609480812642  0.16531941011092946 		Uiso   ? 		O 		-0.61064
O 1.0  		0.5567679799745957 		0.21003042496810287  0.16729928328591068 		Uiso   ? 		O 		-0.61064
O 1.0  		0.5577115007812574 		0.7142506624791443  0.16630934669842004 		Uiso   ? 		O 		-0.61064
O 1.0  		0.17082570454720353 		0.2694081852978703  0.1163882587863943 		Uiso   ? 		O 		-0.98200
O 1.0  		0.17261686489722378 		0.7672489940131515  0.1163882587863943 		Uiso   ? 		O 		-0.98200
O 1.0  		0.6700614062396062 		0.2645009323780548  0.11596400024889833 		Uiso   ? 		O 		-0.98200
O 1.0  		0.6712743582866136 		0.7679850819511238  0.11681251732389028 		Uiso   ? 		O 		-0.98200
O 1.0  		0.1719362988540198 		0.26695455883796254  0.2698284298474366 		Uiso   ? 		O 		-0.98194
O 1.0  		0.17075259679142668 		0.7647953675532437  0.27110120545992455 		Uiso   ? 		O 		-0.98194
O 1.0  		0.6709201645517722 		0.2662184708999902  0.27209114204741514 		Uiso   ? 		O 		-0.98194
O 1.0  		0.6691976000084869 		0.7655314554912162  0.27067694692242855 		Uiso   ? 		O 		-0.98194
O 1.0  		0.11529123325548397 		0.26670919619197175  0.18087555648578169 		Uiso   ? 		O 		-0.98193
O 1.0  		0.11384689757539274 		0.7670036313671607  0.1804512979482857 		Uiso   ? 		O 		-0.98193
O 1.0  		0.6166365625714454 		0.26474629502404556  0.18158265404827498 		Uiso   ? 		O 		-0.98193
O 1.0  		0.6169426128611184 		0.7689665325350868  0.18115839551077897 		Uiso   ? 		O 		-0.98193
O 1.0  		0.11726058587446625 		0.26597310825399945  0.3353056641343146 		Uiso   ? 		O 		-0.98194
O 1.0  		0.11517877967738649 		0.7662675434291885  0.33643702023430383 		Uiso   ? 		O 		-0.98194
O 1.0  		0.618991549712766 		0.26818137206791637  0.33643702023430383 		Uiso   ? 		O 		-0.98194
O 1.0  		0.6145635539972135 		0.7667582687211699  0.3362956007218052 		Uiso   ? 		O 		-0.98194
O 1.0  		0.05842158479383201 		0.2107665129060752  0.3197495177594624 		Uiso   ? 		O 		-0.61071
O 1.0  		0.05799155653021981 		0.7135145745411718  0.3217293909344436 		Uiso   ? 		O 		-0.61071
O 1.0  		0.5615501694249898 		0.21322013936598294  0.3215879714219449 		Uiso   ? 		O 		-0.61071
O 1.0  		0.5601956441583473 		0.7132692118951811  0.3220122299594409 		Uiso   ? 		O 		-0.61071
O 1.0  		0.16982348982151108 		0.3226518794778683  0.1804512979482857 		Uiso   ? 		O 		-0.98193
O 1.0  		0.17114152638170377 		0.8229463146530573  0.18030987843578705 		Uiso   ? 		O 		-0.98193
O 1.0  		0.6722641393445523 		0.32117970360192366  0.1824311711232669 		Uiso   ? 		O 		-0.98193
O 1.0  		0.6715799539403307 		0.8217195014231035  0.18073413697328303 		Uiso   ? 		O 		-0.98193
O 1.0  		0.1709669534737595 		0.3206889783099421  0.3353056641343146 		Uiso   ? 		O 		-0.98194
O 1.0  		0.17039665020557074 		0.8197566002551773  0.335164244621816 		Uiso   ? 		O 		-0.98194
O 1.0  		0.6723868191034332 		0.32142506624791445  0.33671985925930115 		Uiso   ? 		O 		-0.98194
O 1.0  		0.6709184117007578 		0.8229463146530573  0.335164244621816 		Uiso   ? 		O 		-0.98194
O 1.0  		0.17023637747538353 		0.26695455883796254  0.18059271746078437 		Uiso   ? 		O 		-0.98193
O 1.0  		0.1693966429668487 		0.7667582687211699  0.18087555648578169 		Uiso   ? 		O 		-0.98193
O 1.0  		0.6697021645858114 		0.2654823829620179  0.1814412345357763 		Uiso   ? 		O 		-0.98193
O 1.0  		0.671298430009198 		0.7667582687211699  0.18087555648578169 		Uiso   ? 		O 		-0.98193
O 1.0  		0.2458604139691035 		0.025517715183040534  0.16800638084840394 		Uiso   ? 		O 		-0.61064
O 1.0  		0.24631969221713018 		0.5240946118362941  0.16560224913592678 		Uiso   ? 		O 		-0.61064
O 1.0  		0.7484237432510257 		0.024290901953086665  0.16531941011092946 		Uiso   ? 		O 		-0.61064
O 1.0  		0.7495052179163044 		0.5258121503582295  0.16673360523591604 		Uiso   ? 		O 		-0.61064
O 1.0  		0.17220573009436574 		0.2662184708999902  0.33558850315931193 		Uiso   ? 		O 		-0.98194
O 1.0  		0.16937904772115292 		0.7633231916772991  0.3362956007218052 		Uiso   ? 		O 		-0.98194
O 1.0  		0.6738468835192168 		0.26867209735989794  0.33572992267181057 		Uiso   ? 		O 		-0.98194
O 1.0  		0.6710377963916998 		0.7692118951810777  0.3350228251093173 		Uiso   ? 		O 		-0.98194
O 1.0  		0.05616850075674672 		0.2627833938561194  0.1293988539362707 		Uiso   ? 		O 		-0.60771
O 1.0  		0.05690600786796729 		0.7623417410933361  0.13095446857375595 		Uiso   ? 		O 		-0.60771
O 1.0  		0.5588633074203976 		0.2635194817940917  0.1323686636987425 		Uiso   ? 		O 		-0.60771
O 1.0  		0.5586041023608349 		0.7640592796152714  0.13024737101126266 		Uiso   ? 		O 		-0.60771
O 1.0  		0.05719808227296218 		0.2622926685641378  0.28552599573478754 		Uiso   ? 		O 		-0.60751
O 1.0  		0.058001328075047154 		0.7628324663853175  0.2849603176847929 		Uiso   ? 		O 		-0.60751
O 1.0  		0.5587494252843646 		0.26499165767003635  0.28736444939727007 		Uiso   ? 		O 		-0.60751
O 1.0  		0.5605077162889528 		0.7623417410933361  0.28566741524728617 		Uiso   ? 		O 		-0.60751
O 1.0  		0.1737708790233345 		0.21027578761409366  0.13180298564874787 		Uiso   ? 		O 		-0.60771
O 1.0  		0.17455005310283514 		0.7120423986652273  0.1320858246737452 		Uiso   ? 		O 		-0.60771
O 1.0  		0.6746190128268841 		0.21199332613602906  0.130105951498764 		Uiso   ? 		O 		-0.60771
O 1.0  		0.6751528273886229 		0.7132692118951811  0.130105951498764 		Uiso   ? 		O 		-0.60771
O 1.0  		0.12342414809600262 		0.22475218372754935  0.1639052149859429 		Uiso   ? 		O 		-1.13805
O 1.0  		0.12356585165851472 		0.7265187947786829  0.1636223759609456 		Uiso   ? 		O 		-1.13805
O 1.0  		0.6226117063432366 		0.2222985572676416  0.16404663449844153 		Uiso   ? 		O 		-1.13805
O 1.0  		0.6231631161506712 		0.7270095200706645  0.1639052149859429 		Uiso   ? 		O 		-1.13805
O 1.0  		0.17423752633627362 		0.2124840514280106  0.28524315670979017 		Uiso   ? 		O 		-0.60751
O 1.0  		0.17141084396306075 		0.7095887722053195  0.2872230298847714 		Uiso   ? 		O 		-0.60751
O 1.0  		0.6751995422758561 		0.2127294140740014  0.28552599573478754 		Uiso   ? 		O 		-0.60751
O 1.0  		0.674883396148277 		0.7140052998331535  0.2853845762222888 		Uiso   ? 		O 		-0.60751
O 1.0  		0.056904579310031886 		0.264255569732064  0.1651779905984308 		Uiso   ? 		O 		-0.60747
O 1.0  		0.057609217075820285 		0.7633231916772991  0.167582122310908 		Uiso   ? 		O 		-0.60747
O 1.0  		0.5580045491082315 		0.2618019432721563  0.1658850881609241 		Uiso   ? 		O 		-0.60747
O 1.0  		0.5590707496737741 		0.7662675434291885  0.1658850881609241 		Uiso   ? 		O 		-0.60747
O 1.0  		0.06002619320411044 		0.2632741191481009  0.31946667873446505 		Uiso   ? 		O 		-0.60778
O 1.0  		0.05876147835091655 		0.7630778290313083  0.32088087385945163 		Uiso   ? 		O 		-0.60778
O 1.0  		0.5580133467310795 		0.2635194817940917  0.3213051323969476 		Uiso   ? 		O 		-0.60778
O 1.0  		0.5599119127402443 		0.764550004907253  0.3210222933719503 		Uiso   ? 		O 		-0.60778
O 1.0  		0.17573375516542822 		0.21420158994994604  0.16701644426091336 		Uiso   ? 		O 		-0.60747
O 1.0  		0.17562130158733064 		0.7137599371871627  0.16645076621091873 		Uiso   ? 		O 		-0.60747
O 1.0  		0.6737273851692858 		0.20978506232211208  0.16630934669842004 		Uiso   ? 		O 		-0.60747
O 1.0  		0.674335736044737 		0.7137599371871627  0.16531941011092946 		Uiso   ? 		O 		-0.60747
O 1.0  		0.12254131806125232 		0.2242614584355678  0.3177696445844812 		Uiso   ? 		O 		-1.13812
O 1.0  		0.12115392344917758 		0.7238198056727845  0.3180524836094785 		Uiso   ? 		O 		-1.13812
O 1.0  		0.6241167327952392 		0.22573363431151244  0.31904242019696905 		Uiso   ? 		O 		-1.13812
O 1.0  		0.6234325473910174 		0.7262734321326921  0.3177696445844812 		Uiso   ? 		O 		-1.13812
O 1.0  		0.17534812064308986 		0.21003042496810287  0.31989093727196105 		Uiso   ? 		O 		-0.60778
O 1.0  		0.17107567403185037 		0.7093434095593287  0.3218708104469422 		Uiso   ? 		O 		-0.60778
O 1.0  		0.6750111238261108 		0.2115026008440475  0.3213051323969476 		Uiso   ? 		O 		-0.60778
O 1.0  		0.6739348274226622 		0.7125331239572088  0.3201737762969583 		Uiso   ? 		O 		-0.60778
O 1.0  		0.2982140091527686 		0.02355481401511434  0.1658850881609241 		Uiso   ? 		O 		-0.60747
O 1.0  		0.2985112618195937 		0.5260575130042203  0.16701644426091336 		Uiso   ? 		O 		-0.60747
O 1.0  		0.80069632564409 		0.024290901953086665  0.1639052149859429 		Uiso   ? 		O 		-0.60747
O 1.0  		0.7991293102051178 		0.5243399744822849  0.16531941011092946 		Uiso   ? 		O 		-0.60747
O 1.0  		0.2980913293938877 		0.023309451369123567  0.3218708104469422 		Uiso   ? 		O 		-0.60777
O 1.0  		0.298960313886837 		0.5248306997742663  0.3218708104469422 		Uiso   ? 		O 		-0.60777
O 1.0  		0.7990292736108858 		0.024781627245068213  0.3200323567844597 		Uiso   ? 		O 		-0.60777
O 1.0  		0.7993746697228796 		0.5248306997742663  0.3197495177594624 		Uiso   ? 		O 		-0.60777
O 1.0  		0.24659660618137763 		0.1396113455687506  0.16645076621091873 		Uiso   ? 		O 		-0.60747
O 1.0  		0.24718736181113304 		0.6401511433899304  0.16602650767342275 		Uiso   ? 		O 		-0.60747
O 1.0  		0.745571674256282 		0.1371577191088429  0.16574366864842544 		Uiso   ? 		O 		-0.60747
O 1.0  		0.7481493777507155 		0.6403965060359211  0.16574366864842544 		Uiso   ? 		O 		-0.60747
O 1.0  		0.24756924662957663 		0.1398567082147414  0.32243648849693685 		Uiso   ? 		O 		-0.60777
O 1.0  		0.24669664277560965 		0.6391696928059672  0.3218708104469422 		Uiso   ? 		O 		-0.60777
O 1.0  		0.7430875308791921 		0.13813916969280596  0.31989093727196105 		Uiso   ? 		O 		-0.60777
O 1.0  		0.7472994170613974 		0.6403965060359211  0.32031519580945705 		Uiso   ? 		O 		-0.60777
O 1.0  		0.2988274079471729 		0.024781627245068213  0.13123730759875327 		Uiso   ? 		O 		-0.60771
O 1.0  		0.2992297451271831 		0.5240946118362941  0.1320858246737452 		Uiso   ? 		O 		-0.60771
O 1.0  		0.7982362539895843 		0.02404553930709589  0.12996453198626534 		Uiso   ? 		O 		-0.60771
O 1.0  		0.7993089310320152 		0.5238492491903033  0.1310958880862546 		Uiso   ? 		O 		-0.60771
O 1.0  		0.29735525084060255 		0.021837275493178918  0.2870816103722727 		Uiso   ? 		O 		-0.60751
O 1.0  		0.29786499367975716 		0.5243399744822849  0.28637451280977944 		Uiso   ? 		O 		-0.60751
O 1.0  		0.7995023974007136 		0.02232800078516047  0.2853845762222888 		Uiso   ? 		O 		-0.60751
O 1.0  		0.798189539102351 		0.5245853371282756  0.2858088347597848 		Uiso   ? 		O 		-0.60751
O 1.0  		0.22695365824167216 		0.2635194817940917  0.16574366864842544 		Uiso   ? 		O 		-0.61064
O 1.0  		0.22834623111557714 		0.7665129060751792  0.16503657108593217 		Uiso   ? 		O 		-0.61064
O 1.0  		0.7235343933529353 		0.2618019432721563  0.16729928328591068 		Uiso   ? 		O 		-0.61064
O 1.0  		0.7271745477090164 		0.7650407301992345  0.16602650767342275 		Uiso   ? 		O 		-0.61064
O 1.0  		0.2470215865260367 		0.1396113455687506  0.1313787271112519 		Uiso   ? 		O 		-0.60770
O 1.0  		0.24999140101969702 		0.6423594072038473  0.13067162954875863 		Uiso   ? 		O 		-0.60770
O 1.0  		0.7475826938435445 		0.1386298949847875  0.13123730759875327 		Uiso   ? 		O 		-0.60770
O 1.0  		0.7470211881982036 		0.639415055451958  0.13166156613624921 		Uiso   ? 		O 		-0.60770
O 1.0  		0.24669521421767424 		0.14108352144469527  0.28665735183477675 		Uiso   ? 		O 		-0.60751
O 1.0  		0.24681932253449052 		0.639415055451958  0.2870816103722727 		Uiso   ? 		O 		-0.60751
O 1.0  		0.7468642105359551 		0.14059279615271372  0.28467747865979554 		Uiso   ? 		O 		-0.60751
O 1.0  		0.7469313777847548 		0.6396604180979488  0.28467747865979554 		Uiso   ? 		O 		-0.60751
O 1.0  		0.08122107747599601 		0.2941898125429385  0.2612018395850186 		Uiso   ? 		O 		-0.60031
O 1.0  		0.0806355001080708 		0.7962017862400629  0.2617675176350132 		Uiso   ? 		O 		-0.60031
O 1.0  		0.5810637014859144 		0.2951712631269016  0.26247461519750653 		Uiso   ? 		O 		-0.60031
O 1.0  		0.5814331693204924 		0.793993522426146  0.2619089371475119 		Uiso   ? 		O 		-0.60031
O 1.0  		0.22549909638079763 		0.26401020708607326  0.3220122299594409 		Uiso   ? 		O 		-0.61072
O 1.0  		0.2226066753167204 		0.760133477279419  0.3213051323969476 		Uiso   ? 		O 		-0.61072
O 1.0  		0.725766700735375 		0.26499165767003635  0.32144655190944627 		Uiso   ? 		O 		-0.61072
O 1.0  		0.725866737329607 		0.764550004907253  0.32088087385945163 		Uiso   ? 		O 		-0.61072
O 1.0  		0.12125072962553807 		0.3160270880361174  0.1631981174234496 		Uiso   ? 		O 		-1.13805
O 1.0  		0.12198823673675857 		0.815585435273334  0.1631981174234496 		Uiso   ? 		O 		-1.13805
O 1.0  		0.6238709999754767 		0.3140641868681912  0.1631981174234496 		Uiso   ? 		O 		-1.13805
O 1.0  		0.623497912779881 		0.8160761605653156  0.16263243937345498 		Uiso   ? 		O 		-1.13805
O 1.0  		0.14222140433630812 		0.20242418294238887  0.26134325909751727 		Uiso   ? 		O 		-0.60031
O 1.0  		0.14085808144681763 		0.7007557169496517  0.2630402932475011 		Uiso   ? 		O 		-0.60031
O 1.0  		0.6417529301376004 		0.2019334576504073  0.26134325909751727 		Uiso   ? 		O 		-0.60031
O 1.0  		0.6410687447333786 		0.702473255471587  0.2619089371475119 		Uiso   ? 		O 		-0.60031
O 1.0  		0.08024843702779703 		0.2939444498969477  0.19049208333569032 		Uiso   ? 		O 		-0.60043
O 1.0  		0.08167387924713415 		0.7974285994700168  0.19049208333569032 		Uiso   ? 		O 		-0.60043
O 1.0  		0.5804174333460779 		0.29345372460496616  0.190633502848189 		Uiso   ? 		O 		-0.60043
O 1.0  		0.5807234836357509 		0.7976739621160075  0.1899264052856957 		Uiso   ? 		O 		-0.60043
O 1.0  		0.0823821363739402 		0.29566198841888314  0.34350799585923664 		Uiso   ? 		O 		-0.59946
O 1.0  		0.07986655220935346 		0.7942388850721367  0.34520503000922054 		Uiso   ? 		O 		-0.59946
O 1.0  		0.5813090610036761 		0.29566198841888314  0.3453464495217192 		Uiso   ? 		O 		-0.59946
O 1.0  		0.5808461633946317 		0.7979193247619982  0.34393225439673264 		Uiso   ? 		O 		-0.59946
O 1.0  		0.14249963319950204 		0.20340563352635196  0.19091634187318632 		Uiso   ? 		O 		-0.60043
O 1.0  		0.1440958986228886 		0.704681519285504  0.19049208333569032 		Uiso   ? 		O 		-0.60043
O 1.0  		0.6414418319289743 		0.20046128177446265  0.190633502848189 		Uiso   ? 		O 		-0.60043
O 1.0  		0.6428672741483115 		0.7039454313475317  0.19006782479819437 		Uiso   ? 		O 		-0.60043
O 1.0  		0.1419760448185464 		0.2019334576504073  0.34421509342173 		Uiso   ? 		O 		-0.59945
O 1.0  		0.13939472196309527 		0.6995289037196978  0.34520503000922054 		Uiso   ? 		O 		-0.59945
O 1.0  		0.644099119656073 		0.20365099617234272  0.34577070805921517 		Uiso   ? 		O 		-0.59945
O 1.0  		0.6427117250439984 		0.7032093434095594  0.34435651293422864 		Uiso   ? 		O 		-0.59945
O 1.0  		0.12391449382952541 		0.3145549121601728  0.31692112750948925 		Uiso   ? 		O 		-1.13812
O 1.0  		0.12335298818418444 		0.8153400726273433  0.31847674214697447 		Uiso   ? 		O 		-1.13812
O 1.0  		0.6245413398378974 		0.3145549121601728  0.31819390312197715 		Uiso   ? 		O 		-1.13812
O 1.0  		0.6234081023664324 		0.8163215232113064  0.3179110640969799 		Uiso   ? 		O 		-1.13812
O 1.0  		0.3306268844438798 		0.04588281480027481  0.19006782479819437 		Uiso   ? 		O 		-0.60043
O 1.0  		0.33222314986726637 		0.5471587005594268  0.190633502848189 		Uiso   ? 		O 		-0.60043
O 1.0  		0.8296764888324965 		0.046128177446265586  0.19006782479819437 		Uiso   ? 		O 		-0.60043
O 1.0  		0.8305936167706143 		0.5451957993915006  0.19006782479819437 		Uiso   ? 		O 		-0.60043
O 1.0  		0.33101899544310665 		0.04539208950829326  0.3460535470842125 		Uiso   ? 		O 		-0.59947
O 1.0  		0.3312657835188038 		0.5439689861615469  0.34548786903421785 		Uiso   ? 		O 		-0.59947
O 1.0  		0.8316217697288943 		0.046618902738247134  0.3446393519592259 		Uiso   ? 		O 		-0.59947
O 1.0  		0.828199283806973 		0.5459318873294731  0.34562928854671654 		Uiso   ? 		O 		-0.59947
O 1.0  		0.2383395506990091 		0.10992246540386692  0.19077492236068763 		Uiso   ? 		O 		-0.60043
O 1.0  		0.23731139774072907 		0.6084993620571205  0.19049208333569032 		Uiso   ? 		O 		-0.60043
O 1.0  		0.7377308014957247 		0.10575130042202376  0.1896435662606984 		Uiso   ? 		O 		-0.60043
O 1.0  		0.7365646946788273 		0.6070271861811759  0.18907788821070376 		Uiso   ? 		O 		-0.60043
O 1.0  		0.2362868641434667 		0.1062420257140053  0.3453464495217192 		Uiso   ? 		O 		-0.59944
O 1.0  		0.2386432798427227 		0.6077632741191481  0.34591212757171386 		Uiso   ? 		O 		-0.59944
O 1.0  		0.7377155273959884 		0.10869565217391305  0.3453464495217192 		Uiso   ? 		O 		-0.59944
O 1.0  		0.7352897536448502 		0.6070271861811759  0.34407367390923127 		Uiso   ? 		O 		-0.59944
O 1.0  		0.3275534139949698 		0.04441063892433016  0.26134325909751727 		Uiso   ? 		O 		-0.60031
O 1.0  		0.3296075291084476 		0.5461772499754638  0.26247461519750653 		Uiso   ? 		O 		-0.60031
O 1.0  		0.8310741096253546 		0.04637354009225636  0.2619089371475119 		Uiso   ? 		O 		-0.60031
O 1.0  		0.8305454733254458 		0.5476494258514085  0.26134325909751727 		Uiso   ? 		O 		-0.60031
O 1.0  		0.23675351145640586 		0.10845028952792228  0.2619089371475119 		Uiso   ? 		O 		-0.60031
O 1.0  		0.23569248915269359 		0.6065364608891942  0.2630402932475011 		Uiso   ? 		O 		-0.60031
O 1.0  		0.7376257169825396 		0.10894101481990383  0.26035332251002663 		Uiso   ? 		O 		-0.60031
O 1.0  		0.7354693744717475 		0.6065364608891942  0.26106042007251995 		Uiso   ? 		O 		-0.60031
O 1.0  		0.061102944243515124 		0.2127294140740014  0.1308130490612573 		Uiso   ? 		O 		-0.61068
O 1.0  		0.05767166069874585 		0.7103248601432919  0.1310958880862546 		Uiso   ? 		O 		-0.61068
O 1.0  		0.5563429996299367 		0.21003042496810287  0.13166156613624921 		Uiso   ? 		O 		-0.61068
O 1.0  		0.5602942521946439 		0.7147413877711257  0.13152014662375056 		Uiso   ? 		O 		-0.61068
O 1.0  		0.26206694911113126 		0.36264599077436455  0.14594493689861354 		Uiso   ? 		O 		-0.58722
O 1.0  		0.2635974758436534 		0.8629404259495534  0.14693487348610412 		Uiso   ? 		O 		-0.58722
O 1.0  		0.7633312656364919 		0.36264599077436455  0.1489147466610853 		Uiso   ? 		O 		-0.58722
O 1.0  		0.7635868513350369 		0.8629404259495534  0.1489147466610853 		Uiso   ? 		O 		-0.58722
O 1.0  		0.2617405768027688 		0.36411816665030916  0.30249633723462627 		Uiso   ? 		O 		-0.58719
O 1.0  		0.2613322991157815 		0.8592599862596918  0.3030620152846209 		Uiso   ? 		O 		-0.58719
O 1.0  		0.7631275730870103 		0.3643635292963  0.30292059577212227 		Uiso   ? 		O 		-0.58719
O 1.0  		0.7624345900599405 		0.8631857885955442  0.3030620152846209 		Uiso   ? 		O 		-0.58719
O 1.0  		0.07581949971529878 		0.3182353518500344  0.14608635641111217 		Uiso   ? 		O 		-0.58723
O 1.0  		0.07323817685984763 		0.8158307979193249  0.14764197104859741 		Uiso   ? 		O 		-0.58723
O 1.0  		0.5755459204432247 		0.31430954951418194  0.14948042471107992 		Uiso   ? 		O 		-0.58723
O 1.0  		0.5751487615250448 		0.8175483364412602  0.1472177125111014 		Uiso   ? 		O 		-0.58723
O 1.0  		0.07556534257468916 		0.3160270880361174  0.30292059577212227 		Uiso   ? 		O 		-0.58720
O 1.0  		0.07591073868668285 		0.8160761605653156  0.30391053235961285 		Uiso   ? 		O 		-0.58720
O 1.0  		0.5770838162406595 		0.3182353518500344  0.30348627382211685 		Uiso   ? 		O 		-0.58720
O 1.0  		0.5749603430752996 		0.8163215232113064  0.302213498209629 		Uiso   ? 		O 		-0.58720
O 1.0  		0.21313629448534355 		0.3157817253901266  0.16220818083595903 		Uiso   ? 		O 		-1.13805
O 1.0  		0.21357150101078587 		0.815585435273334  0.16277385888595367 		Uiso   ? 		O 		-1.13805
O 1.0  		0.7124794018368905 		0.3140641868681912  0.1631981174234496 		Uiso   ? 		O 		-1.13805
O 1.0  		0.7143779678460553 		0.8150947099813525  0.16348095644844693 		Uiso   ? 		O 		-1.13805
O 1.0  		0.12107698465555053 		0.17543429188340368  0.15018752227357324 		Uiso   ? 		O 		-0.58723
O 1.0  		0.12422641997610823 		0.6776916282265188  0.14948042471107992 		Uiso   ? 		O 		-0.58723
O 1.0  		0.6195942030403636 		0.1724899401315144  0.14919758568608263 		Uiso   ? 		O 		-0.58723
O 1.0  		0.6222793121939416 		0.6789184414564727  0.14919758568608263 		Uiso   ? 		O 		-0.58723
O 1.0  		0.12165751410452263 		0.176170379821376  0.30419337138461017 		Uiso   ? 		O 		-0.58720
O 1.0  		0.11849566180009938 		0.6730297379526942  0.30292059577212227 		Uiso   ? 		O 		-0.58720
O 1.0  		0.6217367000093548 		0.17592501717538522  0.30348627382211685 		Uiso   ? 		O 		-0.58720
O 1.0  		0.6222945862936781 		0.6759740897045834  0.30348627382211685 		Uiso   ? 		O 		-0.58720
O 1.0  		0.24680018507187032 		0.02527235253704976  0.28651593232227807 		Uiso   ? 		O 		-0.61069
O 1.0  		0.24738214307877782 		0.5240946118362941  0.2849603176847929 		Uiso   ? 		O 		-0.61069
O 1.0  		0.7456285016653096 		0.023800176661105114  0.28552599573478754 		Uiso   ? 		O 		-0.61069
O 1.0  		0.7472247670886962 		0.5250760624202572  0.28524315670979017 		Uiso   ? 		O 		-0.61069
O 1.0  		0.0605881534854074 		0.21297477671999215  0.28467747865979554 		Uiso   ? 		O 		-0.61069
O 1.0  		0.05734528839038333 		0.7117970360192365  0.2870816103722727 		Uiso   ? 		O 		-0.61069
O 1.0  		0.5598502480463536 		0.21322013936598294  0.28595025427228343 		Uiso   ? 		O 		-0.61069
O 1.0  		0.5581188858802206 		0.7108155854352733  0.2870816103722727 		Uiso   ? 		O 		-0.61069
O 1.0  		0.398559575440423 		0.22892334870939252  0.14849048812358934 		Uiso   ? 		O 		-0.58722
O 1.0  		0.3980309391405142 		0.7301992344685445  0.15131887837356248 		Uiso   ? 		O 		-0.58722
O 1.0  		0.897085591448084 		0.22769653547943863  0.14750055153609873 		Uiso   ? 		O 		-0.58722
O 1.0  		0.8988943470438001 		0.7289724212385907  0.14792481007359473 		Uiso   ? 		O 		-0.58722
O 1.0  		0.3975452680239439 		0.22646972224948478  0.3049004689471035 		Uiso   ? 		O 		-0.58719
O 1.0  		0.3991656051699148 		0.7265187947786829  0.30475904943460475 		Uiso   ? 		O 		-0.58719
O 1.0  		0.8969300423437709 		0.22696044754146633  0.30235491772212764 		Uiso   ? 		O 		-0.58719
O 1.0  		0.8970388765608509 		0.7282363333006183  0.3032034347971196 		Uiso   ? 		O 		-0.58719
O 1.0  		0.21347146441655399 		0.3160270880361174  0.3176282250719825 		Uiso   ? 		O 		-1.13813
O 1.0  		0.21310485369784682 		0.8133771714594171  0.3183353226344758 		Uiso   ? 		O 		-1.13813
O 1.0  		0.7143677416652722 		0.3152910000981451  0.31819390312197715 		Uiso   ? 		O 		-1.13813
O 1.0  		0.7132585759163912 		0.8158307979193249  0.31819390312197715 		Uiso   ? 		O 		-1.13813
O 1.0  		0.3509426070509544 		0.04146628717244087  0.148631907636088 		Uiso   ? 		O 		-0.58723
O 1.0  		0.35250600312890884 		0.5422514476396114  0.15117745886106382 		Uiso   ? 		O 		-0.58723
O 1.0  		0.8525420935075256 		0.041711649818431645  0.1466520344611068 		Uiso   ? 		O 		-0.58723
O 1.0  		0.8517023589989906 		0.541515359701639  0.14820764909859205 		Uiso   ? 		O 		-0.58723
O 1.0  		0.3512689793593169 		0.03999411129649623  0.30391053235961285 		Uiso   ? 		O 		-0.58720
O 1.0  		0.35200648647053745 		0.5395524585337128  0.30193065918463163 		Uiso   ? 		O 		-0.58720
O 1.0  		0.8535235315785724 		0.043674550986357835  0.3040519518721115 		Uiso   ? 		O 		-0.58720
O 1.0  		0.8518009670352872 		0.5429875355775837  0.30292059577212227 		Uiso   ? 		O 		-0.58720
O 1.0  		0.21172964875165964 		0.08857591520266955  0.15047036129857055 		Uiso   ? 		O 		-0.58723
O 1.0  		0.21159312345097783 		0.5893610756698401  0.14651061494860815 		Uiso   ? 		O 		-0.58723
O 1.0  		0.7101811284456084 		0.08465011286681716  0.14750055153609873 		Uiso   ? 		O 		-0.58723
O 1.0  		0.709676563868284 		0.5846991853960154  0.1489147466610853 		Uiso   ? 		O 		-0.58723
O 1.0  		0.20950613899206777 		0.0871037393267249  0.3037691128471142 		Uiso   ? 		O 		-0.58720
O 1.0  		0.21164126689614635 		0.5869074492099323  0.30362769333461553 		Uiso   ? 		O 		-0.58720
O 1.0  		0.7097320763783651 		0.08587692609677103  0.301364981134637 		Uiso   ? 		O 		-0.58720
O 1.0  		0.7100534007677745 		0.587152811855923  0.30348627382211685 		Uiso   ? 		O 		-0.58720
O 1.0  		0.24770708682920492 		0.02453626459907744  0.3213051323969476 		Uiso   ? 		O 		-0.61071
O 1.0  		0.24552667259582853 		0.5233585238983217  0.31946667873446505 		Uiso   ? 		O 		-0.61071
O 1.0  		0.7470677894264477 		0.02625380312101286  0.32088087385945163 		Uiso   ? 		O 		-0.61071
O 1.0  		0.7460725058135997 		0.525321425066248  0.3201737762969583 		Uiso   ? 		O 		-0.61071
O 1.0  		0.20905611300284507 		0.04073019923446855  0.15047036129857055 		Uiso   ? 		O 		-0.58704
O 1.0  		0.2109306072894255 		0.5429875355775837  0.1466520344611068 		Uiso   ? 		O 		-0.58704
O 1.0  		0.7113828803898534 		0.04073019923446855  0.14707629299860278 		Uiso   ? 		O 		-0.58704
O 1.0  		0.7105672176039028 		0.5393070958877221  0.1493390051985813 		Uiso   ? 		O 		-0.58704
O 1.0  		0.20838577314042428 		0.040239473942487  0.30518330797210075 		Uiso   ? 		O 		-0.58710
O 1.0  		0.2124092408728843 		0.5412699970556483  0.3033448543096182 		Uiso   ? 		O 		-0.58710
O 1.0  		0.710075070010444 		0.040239473942487  0.30348627382211685 		Uiso   ? 		O 		-0.58710
O 1.0  		0.7109440545033934 		0.5417607223476298  0.30348627382211685 		Uiso   ? 		O 		-0.58710
O 1.0  		0.39701228140016165 		0.08685837668073412  0.14750055153609873 		Uiso   ? 		O 		-0.58704
O 1.0  		0.3990335271682073 		0.5881342624398862  0.14905616617358397 		Uiso   ? 		O 		-0.58704
O 1.0  		0.8974354348590521 		0.08857591520266955  0.14580351738611486 		Uiso   ? 		O 		-0.58704
O 1.0  		0.8969220726588798 		0.5869074492099323  0.14905616617358397 		Uiso   ? 		O 		-0.58704
O 1.0  		0.3968479346730007 		0.08440475022082639  0.3032034347971196 		Uiso   ? 		O 		-0.58711
O 1.0  		0.39637623944110845 		0.5849445480420061  0.3032034347971196 		Uiso   ? 		O 		-0.58711
O 1.0  		0.8982284544803539 		0.08931200314064187  0.30391053235961285 		Uiso   ? 		O 		-0.58711
O 1.0  		0.8969308702817276 		0.5886249877318678  0.3020720786971303 		Uiso   ? 		O 		-0.58711
O 1.0  		0.3522038485271533 		0.22843262341741097  0.14877332714858665 		Uiso   ? 		O 		-0.58704
O 1.0  		0.3524923035711305 		0.7292177838845815  0.148631907636088 		Uiso   ? 		O 		-0.58704
O 1.0  		0.8507298645348143 		0.22720581018745709  0.1493390051985813 		Uiso   ? 		O 		-0.58704
O 1.0  		0.8524816790625139 		0.7292177838845815  0.14820764909859205 		Uiso   ? 		O 		-0.58704
O 1.0  		0.35109973069722555 		0.226224359603494  0.30362769333461553 		Uiso   ? 		O 		-0.58710
O 1.0  		0.35324365622415205 		0.7277456080086369  0.30419337138461017 		Uiso   ? 		O 		-0.58710
O 1.0  		0.8512446552929221 		0.22696044754146633  0.3033448543096182 		Uiso   ? 		O 		-0.58710
O 1.0  		0.8511081299922403 		0.7277456080086369  0.3040519518721115 		Uiso   ? 		O 		-0.58710
O 1.0  		0.07673227732954319 		0.17641574246736677  0.14877332714858665 		Uiso   ? 		O 		-0.58704
O 1.0  		0.07774801330395759 		0.6769555402885465  0.148631907636088 		Uiso   ? 		O 		-0.58704
O 1.0  		0.573516704990288 		0.17298066542349594  0.14990468324857592 		Uiso   ? 		O 		-0.58704
O 1.0  		0.5761032061075694 		0.6779369908725096  0.14877332714858665 		Uiso   ? 		O 		-0.58704
O 1.0  		0.07584944729479288 		0.17592501717538522  0.3009407225971411 		Uiso   ? 		O 		-0.58710
O 1.0  		0.07291768040839491 		0.6762194523505741  0.30391053235961285 		Uiso   ? 		O 		-0.58710
O 1.0  		0.5765091626485972 		0.17641574246736677  0.3030620152846209 		Uiso   ? 		O 		-0.58710
O 1.0  		0.5764865194839482 		0.6757287270585927  0.3044762104096075 		Uiso   ? 		O 		-0.58710
O 1.0  		0.12143132437441478 		0.36313671606634607  0.14820764909859205 		Uiso   ? 		O 		-0.58704
O 1.0  		0.11873611938293066 		0.8622043380115811  0.14707629299860278 		Uiso   ? 		O 		-0.58704
O 1.0  		0.6211994120706209 		0.36141917754441066  0.14806622958609336 		Uiso   ? 		O 		-0.58704
O 1.0  		0.6222239456678833 		0.8636765138875259  0.14806622958609336 		Uiso   ? 		O 		-0.58704
O 1.0  		0.12205999726855549 		0.36141917754441066  0.3030620152846209 		Uiso   ? 		O 		-0.58710
O 1.0  		0.12241419100339695 		0.8631857885955442  0.3057489860220954 		Uiso   ? 		O 		-0.58710
O 1.0  		0.6221808501416677 		0.3633820787123369  0.3070217616345833 		Uiso   ? 		O 		-0.58710
O 1.0  		0.62118556652882 		0.862449700657572  0.3030620152846209 		Uiso   ? 		O 		-0.58710
O 1.0  		0.26177247222622163 		0.3170085386200805  0.14834906861109068 		Uiso   ? 		O 		-0.58704
O 1.0  		0.2624201689239935 		0.8168122485032879  0.1472177125111014 		Uiso   ? 		O 		-0.58704
O 1.0  		0.7610257691643201 		0.3155363627441359  0.15032894178607187 		Uiso   ? 		O 		-0.58704
O 1.0  		0.7641752044848776 		0.8177936990872511  0.14651061494860815 		Uiso   ? 		O 		-0.58704
O 1.0  		0.2610780606412165 		0.3177446265580528  0.30249633723462627 		Uiso   ? 		O 		-0.58711
O 1.0  		0.25994250202379204 		0.8131318088134263  0.30391053235961285 		Uiso   ? 		O 		-0.58711
O 1.0  		0.7621627563396798 		0.3182353518500344  0.3049004689471035 		Uiso   ? 		O 		-0.58711
O 1.0  		0.7627775836920195 		0.8175483364412602  0.3037691128471142 		Uiso   ? 		O 		-0.58711
O 1.0  		0.36584525982652394 		0.14181960938266758  0.14919758568608263 		Uiso   ? 		O 		-0.92972
O 1.0  		0.3674743945953427 		0.6435862204338013  0.14877332714858665 		Uiso   ? 		O 		-0.92972
O 1.0  		0.866472105834896 		0.14181960938266758  0.14806622958609336 		Uiso   ? 		O 		-0.92972
O 1.0  		0.8670299921192193 		0.6418686819118659  0.14905616617358397 		Uiso   ? 		O 		-0.92972
O 1.0  		0.3668419719973072 		0.14083815879870448  0.30292059577212227 		Uiso   ? 		O 		-0.92971
O 1.0  		0.3676780871448243 		0.6418686819118659  0.3040519518721115 		Uiso   ? 		O 		-0.92971
O 1.0  		0.866783204043522 		0.14329178525861222  0.3030620152846209 		Uiso   ? 		O 		-0.92971
O 1.0  		0.8639653192931572 		0.6421140445578566  0.3033448543096182 		Uiso   ? 		O 		-0.92971
O 1.0  		0.2256217761396785 		0.264255569732064  0.13123730759875327 		Uiso   ? 		O 		-0.61067
O 1.0  		0.22593430290623998 		0.7638139169692807  0.1310958880862546 		Uiso   ? 		O 		-0.61067
O 1.0  		0.7260273343528731 		0.2625380312101286  0.13307576126123577 		Uiso   ? 		O 		-0.61067
O 1.0  		0.7273870378813458 		0.7650407301992345  0.13152014662375056 		Uiso   ? 		O 		-0.61067
O 1.0  		0.2978243329584901 		0.14304642261262146  0.14905616617358397 		Uiso   ? 		O 		-0.92972
O 1.0  		0.2974095787946144 		0.6428501324958289  0.1489147466610853 		Uiso   ? 		O 		-0.92972
O 1.0  		0.7956383421354503 		0.13912062027676905  0.148631907636088 		Uiso   ? 		O 		-0.92972
O 1.0  		0.7951995162489903 		0.6401511433899304  0.14806622958609336 		Uiso   ? 		O 		-0.92972
O 1.0  		0.297357685645551 		0.14083815879870448  0.30391053235961285 		Uiso   ? 		O 		-0.92971
O 1.0  		0.29773595110297685 		0.6413779566198842  0.3040519518721115 		Uiso   ? 		O 		-0.92971
O 1.0  		0.7953777085179523 		0.14157424673667682  0.302213498209629 		Uiso   ? 		O 		-0.92971
O 1.0  		0.7977012548717761 		0.6426047698498382  0.3030620152846209 		Uiso   ? 		O 		-0.92971
O 1.0  		0.2950035587672207 		0.07238198056727844  0.1493390051985813 		Uiso   ? 		O 		-0.92972
O 1.0  		0.29659102656775943 		0.5719403278044951  0.14905616617358397 		Uiso   ? 		O 		-0.92972
O 1.0  		0.7968965481867221 		0.07066444204534301  0.14792481007359473 		Uiso   ? 		O 		-0.92972
O 1.0  		0.7973164806124281 		0.5734125036804398  0.14834906861109068 		Uiso   ? 		O 		-0.92972
O 1.0  		0.29588638880197105 		0.07287270585925999  0.30433479089710885 		Uiso   ? 		O 		-0.92971
O 1.0  		0.29759653636139055 		0.5726764157424674  0.3050418884596021 		Uiso   ? 		O 		-0.92971
O 1.0  		0.7962350059471492 		0.07189125527529688  0.3027791762596236 		Uiso   ? 		O 		-0.92971
O 1.0  		0.7970951928172507 		0.5716949651585044  0.30362769333461553 		Uiso   ? 		O 		-0.92971
O 1.0  		0.22594814844804098 		0.2627833938561194  0.28595025427228343 		Uiso   ? 		O 		-0.61069
O 1.0  		0.22348950535147072 		0.7606242025714006  0.2853845762222888 		Uiso   ? 		O 		-0.61069
O 1.0  		0.7288313735614371 		0.26474629502404556  0.2872230298847714 		Uiso   ? 		O 		-0.61069
O 1.0  		0.7253519465714994 		0.7647953675532437  0.2860916737847822 		Uiso   ? 		O 		-0.61069
O 1.0  		0.2828527600831065 		0.10035332221022672  0.24182736637270263 		Uiso   ? 		O 		-0.55471
O 1.0  		0.2812047318535337 		0.6023652959073511  0.24154452734770532 		Uiso   ? 		O 		-0.55471
O 1.0  		0.7828333379516421 		0.0986357836882913  0.24083742978521205 		Uiso   ? 		O 		-0.55471
O 1.0  		0.7812991918581023 		0.599175581509471  0.24041317124771608 		Uiso   ? 		O 		-0.55471
O 1.0  		0.17688845124547295 		0.33295711060948086  0.14905616617358397 		Uiso   ? 		O 		-0.92972
O 1.0  		0.17656350749504582 		0.8325154578466974  0.14905616617358397 		Uiso   ? 		O 		-0.92972
O 1.0  		0.6740737875282925 		0.3307488467955639  0.1493390051985813 		Uiso   ? 		O 		-0.92972
O 1.0  		0.6772713662940187 		0.8305525566787713  0.14764197104859741 		Uiso   ? 		O 		-0.92972
O 1.0  		0.1768139149317607 		0.33025812150358236  0.30292059577212227 		Uiso   ? 		O 		-0.92971
O 1.0  		0.17688987980340834 		0.8310432819707528  0.30348627382211685 		Uiso   ? 		O 		-0.92971
O 1.0  		0.6771143886317703 		0.331730297379527  0.3040519518721115 		Uiso   ? 		O 		-0.92971
O 1.0  		0.6759723535374573 		0.8317793699087251  0.30292059577212227 		Uiso   ? 		O 		-0.92971
O 1.0  		0.1775901995703569 		0.2625380312101286  0.1473591320236001 		Uiso   ? 		O 		-0.92972
O 1.0  		0.17690601416613508 		0.7630778290313083  0.14792481007359473 		Uiso   ? 		O 		-0.92972
O 1.0  		0.6760264051645694 		0.2615565806261655  0.14820764909859205 		Uiso   ? 		O 		-0.92972
O 1.0  		0.6764704093128595 		0.7630778290313083  0.14877332714858665 		Uiso   ? 		O 		-0.92972
O 1.0  		0.17731197070716298 		0.2615565806261655  0.3033448543096182 		Uiso   ? 		O 		-0.92971
O 1.0  		0.1751644258192188 		0.7608695652173914  0.30391053235961285 		Uiso   ? 		O 		-0.92971
O 1.0  		0.6751764444752512 		0.2615565806261655  0.3040519518721115 		Uiso   ? 		O 		-0.92971
O 1.0  		0.6746149388299103 		0.7623417410933361  0.30292059577212227 		Uiso   ? 		O 		-0.92971
O 1.0  		0.10573565197754364 		0.26204730591814707  0.14905616617358397 		Uiso   ? 		O 		-0.92972
O 1.0  		0.10491998919159312 		0.7606242025714006  0.14820764909859205 		Uiso   ? 		O 		-0.92972
O 1.0  		0.6059287200184087 		0.2603297673962116  0.1489147466610853 		Uiso   ? 		O 		-0.92972
O 1.0  		0.6074439726511945 		0.76356855432329  0.148631907636088 		Uiso   ? 		O 		-0.92972
O 1.0  		0.10579259304556013 		0.2613112179801747  0.302213498209629 		Uiso   ? 		O 		-0.92971
O 1.0  		0.10714349895118497 		0.7620963784473452  0.30348627382211685 		Uiso   ? 		O 		-0.92971
O 1.0  		0.6068532170214391 		0.26302875650211016  0.30475904943460475 		Uiso   ? 		O 		-0.92971
O 1.0  		0.6070430640291198 		0.7623417410933361  0.3032034347971196 		Uiso   ? 		O 		-0.92971
O 1.0  		0.1742826020314815 		0.3812935518696634  0.13123730759875327 		Uiso   ? 		O 		-0.61067
O 1.0  		0.17260818093336494 		0.8781529100009816  0.13123730759875327 		Uiso   ? 		O 		-0.61067
O 1.0  		0.675080271243903 		0.3790852880557464  0.13095446857375595 		Uiso   ? 		O 		-0.61067
O 1.0  		0.675335856942448 		0.8793797232309354  0.13067162954875863 		Uiso   ? 		O 		-0.61067
O 1.0  		0.14168130829062506 		0.357738737854549  0.2617675176350132 		Uiso   ? 		O 		-0.58406
O 1.0  		0.14397198529901672 		0.8582785356757289  0.2621917761725092 		Uiso   ? 		O 		-0.58406
O 1.0  		0.6430025658840022 		0.35700264991657676  0.2617675176350132 		Uiso   ? 		O 		-0.58406
O 1.0  		0.6430127920647855 		0.8568063597997841  0.26106042007251995 		Uiso   ? 		O 		-0.58406
O 1.0  		0.17409418358173623 		0.3800667386397095  0.2843946396347983 		Uiso   ? 		O 		-0.61069
O 1.0  		0.17465206986605952 		0.8801158111689078  0.28679877134727544 		Uiso   ? 		O 		-0.61069
O 1.0  		0.673568768315012 		0.3803121012857003  0.28665735183477675 		Uiso   ? 		O 		-0.61069
O 1.0  		0.6751321643929664 		0.8810972617528708  0.2853845762222888 		Uiso   ? 		O 		-0.61069
O 1.0  		0.412485692079876 		0.1386298949847875  0.13166156613624921 		Uiso   ? 		O 		-0.61067
O 1.0  		0.41521014705577464 		0.6408872313279027  0.130105951498764 		Uiso   ? 		O 		-0.61067
O 1.0  		0.9144291460905053 		0.14083815879870448  0.12954027344876937 		Uiso   ? 		O 		-0.61067
O 1.0  		0.9145291826847373 		0.6403965060359211  0.13152014662375056 		Uiso   ? 		O 		-0.61067
O 1.0  		0.39125793846255824 		0.10722347629796841  0.2614846786100159 		Uiso   ? 		O 		-0.58406
O 1.0  		0.39050801436747207 		0.6067818235351851  0.26205035666001053 		Uiso   ? 		O 		-0.58406
O 1.0  		0.8923755035064538 		0.1082049268819315  0.26077758104752263 		Uiso   ? 		O 		-0.58406
O 1.0  		0.8909881088943791 		0.6077632741191481  0.2619089371475119 		Uiso   ? 		O 		-0.58406
O 1.0  		0.41561610359680246 		0.13936598292275984  0.28566741524728617 		Uiso   ? 		O 		-0.61069
O 1.0  		0.41392640839894956 		0.6391696928059672  0.28651593232227807 		Uiso   ? 		O 		-0.61069
O 1.0  		0.9149680085711975 		0.13936598292275984  0.28552599573478754 		Uiso   ? 		O 		-0.61069
O 1.0  		0.912215862511697 		0.6391696928059672  0.28651593232227807 		Uiso   ? 		O 		-0.61069
O 1.0  		0.17272063451146247 		0.37859456276376485  0.167157863773412 		Uiso   ? 		O 		-0.61064
O 1.0  		0.17277252766052587 		0.8806065364608893  0.16602650767342275 		Uiso   ? 		O 		-0.61064
O 1.0  		0.6736257093830285 		0.37957601334772795  0.1661679271859214 		Uiso   ? 		O 		-0.61064
O 1.0  		0.675614085805642 		0.8803611738148985  0.1658850881609241 		Uiso   ? 		O 		-0.61064
O 1.0  		0.13891013842749328 		0.35602119933261367  0.19077492236068763 		Uiso   ? 		O 		-0.58420
O 1.0  		0.142329004988397 		0.8575424477377565  0.190633502848189 		Uiso   ? 		O 		-0.58420
O 1.0  		0.6435414283646943 		0.3555304740406321  0.19077492236068763 		Uiso   ? 		O 		-0.58420
O 1.0  		0.6428989099287526 		0.8582785356757289  0.1899264052856957 		Uiso   ? 		O 		-0.58420
O 1.0  		0.1742978761312179 		0.3783492001177741  0.3196080982469637 		Uiso   ? 		O 		-0.61070
O 1.0  		0.1753705531736488 		0.8781529100009816  0.32215364947193953 		Uiso   ? 		O 		-0.61070
O 1.0  		0.6788481532778181 		0.37982137599371874  0.3218708104469422 		Uiso   ? 		O 		-0.61070
O 1.0  		0.6727290338064773 		0.8801158111689078  0.32031519580945705 		Uiso   ? 		O 		-0.61070
O 1.0  		0.14258821004795968 		0.35700264991657676  0.3444979324467273 		Uiso   ? 		O 		-0.58277
O 1.0  		0.14274518771020805 		0.8558249092158211  0.34577070805921517 		Uiso   ? 		O 		-0.58277
O 1.0  		0.645462637538508 		0.3572480125625675  0.34520503000922054 		Uiso   ? 		O 		-0.58277
O 1.0  		0.6406513284465764 		0.858033173029738  0.34393225439673264 		Uiso   ? 		O 		-0.58277
O 1.0  		0.4131801036648811 		0.13789380704681523  0.16574366864842544 		Uiso   ? 		O 		-0.61064
O 1.0  		0.4154314348509521 		0.6426047698498382  0.1661679271859214 		Uiso   ? 		O 		-0.61064
O 1.0  		0.914052309191015 		0.13838453233879675  0.16489515157343348 		Uiso   ? 		O 		-0.61064
O 1.0  		0.91489722196138 		0.6411325939738934  0.1658850881609241 		Uiso   ? 		O 		-0.61064
O 1.0  		0.3909227685313479 		0.10697811365197764  0.190209244310693 		Uiso   ? 		O 		-0.58420
O 1.0  		0.3925519033001666 		0.6087447247031113  0.1896435662606984 		Uiso   ? 		O 		-0.58420
O 1.0  		0.8910019544361801 		0.10673275100598685  0.18950214674819973 		Uiso   ? 		O 		-0.58420
O 1.0  		0.8925741481369823 		0.6092354499950928  0.19077492236068763 		Uiso   ? 		O 		-0.58420
O 1.0  		0.4160082145960293 		0.1388752576307783  0.3200323567844597 		Uiso   ? 		O 		-0.61071
O 1.0  		0.415928630363364 		0.6389243301599765  0.3215879714219449 		Uiso   ? 		O 		-0.61071
O 1.0  		0.9150994859529261 		0.14132888409068603  0.32144655190944627 		Uiso   ? 		O 		-0.61071
O 1.0  		0.9124940913748907 		0.6401511433899304  0.3213051323969476 		Uiso   ? 		O 		-0.61071
O 1.0  		0.3941517880845709 		0.1091863774658946  0.3449221909842233 		Uiso   ? 		O 		-0.58277
O 1.0  		0.39251023633188653 		0.6065364608891942  0.34591212757171386 		Uiso   ? 		O 		-0.58277
O 1.0  		0.8922856930930051 		0.10845028952792228  0.3450636104967219 		Uiso   ? 		O 		-0.58277
O 1.0  		0.8905302592042879 		0.6072725488271666  0.3446393519592259 		Uiso   ? 		O 		-0.58277
O 1.0  		0.2352516664133531 		0.04637354009225636  0.2630402932475011 		Uiso   ? 		O 		-0.58406
O 1.0  		0.23639008214664842 		0.5471587005594268  0.2628988737350025 		Uiso   ? 		O 		-0.58406
O 1.0  		0.7368511528699242 		0.046618902738247134  0.2612018395850186 		Uiso   ? 		O 		-0.58406
O 1.0  		0.738315940911582 		0.5459318873294731  0.26091900056002126 		Uiso   ? 		O 		-0.58406
O 1.0  		0.3354757865071176 		0.09765433310432821  0.24182736637270263 		Uiso   ? 		O 		-0.55471
O 1.0  		0.33609941148230515 		0.5986848562174895  0.24211020539769995 		Uiso   ? 		O 		-0.55471
O 1.0  		0.8361924429289385 		0.09740897045833743  0.241685946860204 		Uiso   ? 		O 		-0.55471
O 1.0  		0.8381326759063833 		0.6006477573854156  0.24154452734770532 		Uiso   ? 		O 		-0.55471
O 1.0  		0.2244214850784026 		0.37957601334772795  0.13067162954875863 		Uiso   ? 		O 		-0.60771
O 1.0  		0.22562563950256234 		0.8813426243988616  0.13067162954875863 		Uiso   ? 		O 		-0.60771
O 1.0  		0.7255302524994502 		0.37883992540975564  0.13053021003625997 		Uiso   ? 		O 		-0.60771
O 1.0  		0.7277311190943931 		0.8796250858769261  0.13024737101126266 		Uiso   ? 		O 		-0.60771
O 1.0  		0.23516818649277027 		0.35602119933261367  0.26134325909751727 		Uiso   ? 		O 		-0.60031
O 1.0  		0.23487611208777534 		0.8560702718618118  0.2617675176350132 		Uiso   ? 		O 		-0.60031
O 1.0  		0.7351094185389851 		0.3584748257925214  0.26134325909751727 		Uiso   ? 		O 		-0.60031
O 1.0  		0.7363857881308977 		0.8565609971537934  0.2604947420225253 		Uiso   ? 		O 		-0.60031
O 1.0  		0.2237752169385661 		0.37785847482579255  0.2848188981722942 		Uiso   ? 		O 		-0.60751
O 1.0  		0.2265478153596333 		0.8776621847089999  0.28679877134727544 		Uiso   ? 		O 		-0.60751
O 1.0  		0.7253506316725529 		0.3793306507017372  0.28595025427228343 		Uiso   ? 		O 		-0.60751
O 1.0  		0.7275186289220636 		0.8796250858769261  0.2848188981722942 		Uiso   ? 		O 		-0.60751
O 1.0  		0.4139347513858414 		0.19040141328884091  0.13222724418624385 		Uiso   ? 		O 		-0.60770
O 1.0  		0.4152703831917299 		0.6941309255079008  0.13222724418624385 		Uiso   ? 		O 		-0.60770
O 1.0  		0.9132297152922199 		0.19113750122681325  0.13053021003625997 		Uiso   ? 		O 		-0.60770
O 1.0  		0.9151611506468168 		0.6926587496319561  0.1308130490612573 		Uiso   ? 		O 		-0.60770
O 1.0  		0.390670559234697 		0.1999705564824811  0.26233319568500785 		Uiso   ? 		O 		-0.60031
O 1.0  		0.3932876085514511 		0.6990381784277163  0.2628988737350025 		Uiso   ? 		O 		-0.60031
O 1.0  		0.8922131046232515 		0.2009520070664442  0.26063616153502395 		Uiso   ? 		O 		-0.60031
O 1.0  		0.8911937492878195 		0.7012464422416332  0.26134325909751727 		Uiso   ? 		O 		-0.60031
O 1.0  		0.4137310588363598 		0.19211895181077634  0.2862330932972808 		Uiso   ? 		O 		-0.60751
O 1.0  		0.41583331739500623 		0.6914319364020022  0.28679877134727544 		Uiso   ? 		O 		-0.60751
O 1.0  		0.9128047349475608 		0.19113750122681325  0.28552599573478754 		Uiso   ? 		O 		-0.60751
O 1.0  		0.9133954905773162 		0.691677299047993  0.28552599573478754 		Uiso   ? 		O 		-0.60751
O 1.0  		0.22648944573368143 		0.3803121012857003  0.1658850881609241 		Uiso   ? 		O 		-0.60748
O 1.0  		0.22598488115635695 		0.8803611738148985  0.16503657108593217 		Uiso   ? 		O 		-0.60748
O 1.0  		0.7258654224306607 		0.3790852880557464  0.16602650767342275 		Uiso   ? 		O 		-0.60748
O 1.0  		0.7261779491972222 		0.8786436352929631  0.16503657108593217 		Uiso   ? 		O 		-0.60748
O 1.0  		0.236541735563044 		0.3574933752085583  0.18907788821070376 		Uiso   ? 		O 		-0.60043
O 1.0  		0.23500758946950406 		0.858033173029738  0.18978498577319705 		Uiso   ? 		O 		-0.60043
O 1.0  		0.735615411674245 		0.3565119246245952  0.19091634187318632 		Uiso   ? 		O 		-0.60043
O 1.0  		0.7349312262700232 		0.8570517224457749  0.1896435662606984 		Uiso   ? 		O 		-0.60043
O 1.0  		0.22670193590601095 		0.3803121012857003  0.3201737762969583 		Uiso   ? 		O 		-0.60778
O 1.0  		0.22697279570429238 		0.8776621847089999  0.3217293909344436 		Uiso   ? 		O 		-0.60778
O 1.0  		0.7280231934993882 		0.37957601334772795  0.3205980348344543 		Uiso   ? 		O 		-0.60778
O 1.0  		0.7246993156137633 		0.8803611738148985  0.3205980348344543 		Uiso   ? 		O 		-0.60778
O 1.0  		0.23429415408086784 		0.3572480125625675  0.3446393519592259 		Uiso   ? 		O 		-0.59943
O 1.0  		0.2341488311573381 		0.8563156345078027  0.34676064464670575 		Uiso   ? 		O 		-0.59943
O 1.0  		0.7368991503310701 		0.3582294631465306  0.3453464495217192 		Uiso   ? 		O 		-0.59943
O 1.0  		0.7359367360636544 		0.8577878103837473  0.34421509342173 		Uiso   ? 		O 		-0.59943
O 1.0  		0.41382086924980843 		0.19187358916478559  0.16659218572341736 		Uiso   ? 		O 		-0.60747
O 1.0  		0.41572823288182115 		0.6946216507998823  0.167157863773412 		Uiso   ? 		O 		-0.60747
O 1.0  		0.9125922447752313 		0.19113750122681325  0.16531941011092946 		Uiso   ? 		O 		-0.60747
O 1.0  		0.9143352616800831 		0.6914319364020022  0.16602650767342275 		Uiso   ? 		O 		-0.60747
O 1.0  		0.3923464088907489 		0.201197369712435  0.19077492236068763 		Uiso   ? 		O 		-0.60043
O 1.0  		0.3923084916263636 		0.7034547060555502  0.19091634187318632 		Uiso   ? 		O 		-0.60043
O 1.0  		0.8899983924865076 		0.201197369712435  0.18907788821070376 		Uiso   ? 		O 		-0.60043
O 1.0  		0.892534429012661 		0.7022278928255963  0.1899264052856957 		Uiso   ? 		O 		-0.60043
O 1.0  		0.4152096924198186 		0.19040141328884091  0.32073945434695295 		Uiso   ? 		O 		-0.60777
O 1.0  		0.4131190885998908 		0.6889783099420944  0.3215879714219449 		Uiso   ? 		O 		-0.60777
O 1.0  		0.913965793845505 		0.1926096771027579  0.31904242019696905 		Uiso   ? 		O 		-0.60777
O 1.0  		0.9115969611623833 		0.6902051231720484  0.32144655190944627 		Uiso   ? 		O 		-0.60777
O 1.0  		0.391798748787209 		0.2009520070664442  0.3446393519592259 		Uiso   ? 		O 		-0.59947
O 1.0  		0.39153074610479843 		0.6997742663656885  0.34520503000922054 		Uiso   ? 		O 		-0.59947
O 1.0  		0.8926950260359271 		0.2002159191284719  0.34407367390923127 		Uiso   ? 		O 		-0.59947
O 1.0  		0.8908914487020412 		0.701491804887624  0.3449221909842233 		Uiso   ? 		O 		-0.59947
O 1.0  		0.33002104970733237 		0.2002159191284719  0.26233319568500785 		Uiso   ? 		O 		-0.58406
O 1.0  		0.3323774654065883 		0.7017371675336147  0.2617675176350132 		Uiso   ? 		O 		-0.58406
O 1.0  		0.8306566933385524 		0.2019334576504073  0.2614846786100159 		Uiso   ? 		O 		-0.58406
O 1.0  		0.830298880242693 		0.7010010795956425  0.26063616153502395 		Uiso   ? 		O 		-0.58406
O 1.0  		0.23598774496663824 		0.04784571596820101  0.190633502848189 		Uiso   ? 		O 		-0.58420
O 1.0  		0.23541744169844944 		0.5469133379134361  0.18978498577319705 		Uiso   ? 		O 		-0.58420
O 1.0  		0.7376353748683778 		0.04563745215428403  0.18907788821070376 		Uiso   ? 		O 		-0.58420
O 1.0  		0.7368285097052752 		0.5459318873294731  0.19035066382319168 		Uiso   ? 		O 		-0.58420
O 1.0  		0.23625717620698425 		0.04710962803022868  0.34548786903421785 		Uiso   ? 		O 		-0.58276
O 1.0  		0.23896403593718707 		0.5459318873294731  0.3444979324467273 		Uiso   ? 		O 		-0.58276
O 1.0  		0.7368599504927721 		0.04833644126018256  0.34548786903421785 		Uiso   ? 		O 		-0.58276
O 1.0  		0.7359216079479407 		0.5466679752674454  0.3447807714717246 		Uiso   ? 		O 		-0.58276
O 1.0  		0.3304548276748393 		0.2019334576504073  0.19006782479819437 		Uiso   ? 		O 		-0.58420
O 1.0  		0.331069655027179 		0.7012464422416332  0.19119918089818363 		Uiso   ? 		O 		-0.58420
O 1.0  		0.8306566933385524 		0.2019334576504073  0.19049208333569032 		Uiso   ? 		O 		-0.58420
O 1.0  		0.8307895992782165 		0.7019825301796055  0.1896435662606984 		Uiso   ? 		O 		-0.58420
O 1.0  		0.33002104970733237 		0.2002159191284719  0.34548786903421785 		Uiso   ? 		O 		-0.58278
O 1.0  		0.3297530470249217 		0.6990381784277163  0.3449221909842233 		Uiso   ? 		O 		-0.58278
O 1.0  		0.8305340135796715 		0.20168809500441653  0.34393225439673264 		Uiso   ? 		O 		-0.58278
O 1.0  		0.8286558999320732 		0.7002649916576701  0.34577070805921517 		Uiso   ? 		O 		-0.58278
O 1.0  		0.08038676418841496 		0.20242418294238887  0.19049208333569032 		Uiso   ? 		O 		-0.58420
O 1.0  		0.07975951985220969 		0.7022278928255963  0.1899264052856957 		Uiso   ? 		O 		-0.58420
O 1.0  		0.5799664334348757 		0.19947983119049956  0.19148201992318092 		Uiso   ? 		O 		-0.58420
O 1.0  		0.5798475033798898 		0.7037000687015409  0.1899264052856957 		Uiso   ? 		O 		-0.58420
O 1.0  		0.07942292136306386 		0.2038963588183335  0.3453464495217192 		Uiso   ? 		O 		-0.58278
O 1.0  		0.07892483326262795 		0.699283541073707  0.34421509342173 		Uiso   ? 		O 		-0.58278
O 1.0  		0.5839972702322483 		0.20414172146432427  0.3466192251342071 		Uiso   ? 		O 		-0.58278
O 1.0  		0.5825112675838771 		0.7022278928255963  0.34548786903421785 		Uiso   ? 		O 		-0.58278
O 1.0  		0.23409132179437658 		0.2939444498969477  0.19006782479819437 		Uiso   ? 		O 		-0.58420
O 1.0  		0.2327127248051497 		0.7952203356560998  0.19049208333569032 		Uiso   ? 		O 		-0.58420
O 1.0  		0.7368847364943241 		0.2961527137108647  0.18978498577319705 		Uiso   ? 		O 		-0.58420
O 1.0  		0.735473270159665 		0.7969378741780353  0.19049208333569032 		Uiso   ? 		O 		-0.58420
O 1.0  		0.23808928924631695 		0.2981156148787909  0.34407367390923127 		Uiso   ? 		O 		-0.58272
O 1.0  		0.23327565900842606 		0.7925213465502012  0.3453464495217192 		Uiso   ? 		O 		-0.58272
O 1.0  		0.7359120960461251 		0.2959073510648739  0.34562928854671654 		Uiso   ? 		O 		-0.58272
O 1.0  		0.7326933026736854 		0.7935027971341644  0.3460535470842125 		Uiso   ? 		O 		-0.58272
O 1.0  		0.3362808988192059 		0.15408774168220632  0.241261688322708 		Uiso   ? 		O 		-0.55471
O 1.0  		0.3400020659658877 		0.6553636274413583  0.24211020539769995 		Uiso   ? 		O 		-0.55471
O 1.0  		0.8391071828645856 		0.15678673078810484  0.23956465417272413 		Uiso   ? 		O 		-0.55471
O 1.0  		0.8406136378745235 		0.6583079791932477  0.24182736637270263 		Uiso   ? 		O 		-0.55471
O 1.0  		0.0820866855670512 		0.20242418294238887  0.26035332251002663 		Uiso   ? 		O 		-0.58406
O 1.0  		0.07960397074789666 		0.701491804887624  0.2630402932475011 		Uiso   ? 		O 		-0.58406
O 1.0  		0.581447388164294 		0.20414172146432427  0.2614846786100159 		Uiso   ? 		O 		-0.58406
O 1.0  		0.5803294247925653 		0.7029639807635687  0.26205035666001053 		Uiso   ? 		O 		-0.58406
O 1.0  		0.29825028722512853 		0.1906467759348317  0.1313787271112519 		Uiso   ? 		O 		-0.61067
O 1.0  		0.3014983305819828 		0.6943762881538915  0.13166156613624921 		Uiso   ? 		O 		-0.61067
O 1.0  		0.7989340743015172 		0.18991068799685937  0.13095446857375595 		Uiso   ? 		O 		-0.61067
O 1.0  		0.8002609084845576 		0.6919226616939838  0.13123730759875327 		Uiso   ? 		O 		-0.61067
O 1.0  		0.23597086399991013 		0.29345372460496616  0.26134325909751727 		Uiso   ? 		O 		-0.58406
O 1.0  		0.23675003807941078 		0.7952203356560998  0.26233319568500785 		Uiso   ? 		O 		-0.58406
O 1.0  		0.7345056776304192 		0.2939444498969477  0.26134325909751727 		Uiso   ? 		O 		-0.58406
O 1.0  		0.7336988124673165 		0.7942388850721367  0.26091900056002126 		Uiso   ? 		O 		-0.58406
O 1.0  		0.25838767625070747 		0.08882127784866033  0.1639052149859429 		Uiso   ? 		O 		-1.13805
O 1.0  		0.25940341222512203 		0.5893610756698401  0.1631981174234496 		Uiso   ? 		O 		-1.13805
O 1.0  		0.7589728552907995 		0.08661301403474335  0.16220818083595903 		Uiso   ? 		O 		-1.13805
O 1.0  		0.7592613103347767 		0.5873981745019139  0.1629152783984523 		Uiso   ? 		O 		-1.13805
O 1.0  		0.25917189824916126 		0.08783982726469723  0.31861816165947315 		Uiso   ? 		O 		-1.13812
O 1.0  		0.2608820458085808 		0.5876435371479046  0.3191838397094678 		Uiso   ? 		O 		-1.13812
O 1.0  		0.758646482982437 		0.088085189910688  0.3179110640969799 		Uiso   ? 		O 		-1.13812
O 1.0  		0.7589349380264142 		0.5888703503778585  0.3177696445844812 		Uiso   ? 		O 		-1.13812
O 1.0  		0.348875620317655 		0.08833055255667878  0.1636223759609456 		Uiso   ? 		O 		-1.13805
O 1.0  		0.35168988570700227 		0.5903425262538032  0.1639052149859429 		Uiso   ? 		O 		-1.13805
O 1.0  		0.8511695183592312 		0.08783982726469723  0.16220818083595903 		Uiso   ? 		O 		-1.13805
O 1.0  		0.8499705421969017 		0.5886249877318678  0.1639052149859429 		Uiso   ? 		O 		-1.13805
O 1.0  		0.34983946314300607 		0.08685837668073412  0.31904242019696905 		Uiso   ? 		O 		-1.13812
O 1.0  		0.350217728600432 		0.5873981745019139  0.3189010006844704 		Uiso   ? 		O 		-1.13812
O 1.0  		0.8500589240524149 		0.09029345372460497  0.3180524836094785 		Uiso   ? 		O 		-1.13812
O 1.0  		0.8492432612664644 		0.5888703503778585  0.3183353226344758 		Uiso   ? 		O 		-1.13812
O 1.0  		0.2983400976385772 		0.19040141328884091  0.28637451280977944 		Uiso   ? 		O 		-0.61069
O 1.0  		0.2992331538541108 		0.6906958484640299  0.2858088347597848 		Uiso   ? 		O 		-0.61069
O 1.0  		0.7987632510974677 		0.19211895181077634  0.28566741524728617 		Uiso   ? 		O 		-0.61069
O 1.0  		0.7988720853145476 		0.6933948375699285  0.28566741524728617 		Uiso   ? 		O 		-0.61069
O 1.0  		0.3501020446044629 		0.17960545686524684  0.16376379547344425 		Uiso   ? 		O 		-1.13806
O 1.0  		0.34980117257662013 		0.6779369908725096  0.16348095644844693 		Uiso   ? 		O 		-1.13806
O 1.0  		0.8492984004745449 		0.1788693689272745  0.16348095644844693 		Uiso   ? 		O 		-1.13806
O 1.0  		0.8496437965865384 		0.6789184414564727  0.16348095644844693 		Uiso   ? 		O 		-1.13806
O 1.0  		0.35009324698161504 		0.1778879183433114  0.3179110640969799 		Uiso   ? 		O 		-1.13812
O 1.0  		0.35162377371413717 		0.6781823535185003  0.31847674214697447 		Uiso   ? 		O 		-1.13812
O 1.0  		0.8497891195100683 		0.17985081951123763  0.31734538604698526 		Uiso   ? 		O 		-1.13812
O 1.0  		0.8489493850015334 		0.679654529394445  0.31847674214697447 		Uiso   ? 		O 		-1.13812
O 1.0  		0.257471976870525 		0.08783982726469723  0.13448995638622235 		Uiso   ? 		O 		-1.13804
O 1.0  		0.26223152315627024 		0.5903425262538032  0.13392427833622772 		Uiso   ? 		O 		-1.13804
O 1.0  		0.7606815742922837 		0.08833055255667878  0.13378285882372906 		Uiso   ? 		O 		-1.13804
O 1.0  		0.757618330024157 		0.5866620865639416  0.13350001979873174 		Uiso   ? 		O 		-1.13804
O 1.0  		0.25981816638899774 		0.08955736578663265  0.28920290305975255 		Uiso   ? 		O 		-1.13799
O 1.0  		0.26013069315555926 		0.5891157130238492  0.2897685811097472 		Uiso   ? 		O 		-1.13799
O 1.0  		0.7592839534994256 		0.088085189910688  0.28807154695976334 		Uiso   ? 		O 		-1.13799
O 1.0  		0.7593599183710733 		0.5888703503778585  0.28807154695976334 		Uiso   ? 		O 		-1.13799
O 1.0  		0.3493334700077463 		0.08882127784866033  0.13420711736122504 		Uiso   ? 		O 		-1.13804
O 1.0  		0.35052882680905806 		0.5888703503778585  0.13448995638622235 		Uiso   ? 		O 		-1.13804
O 1.0  		0.8500829957749991 		0.0890666404946511  0.13251008321124116 		Uiso   ? 		O 		-1.13804
O 1.0  		0.8507876335407876 		0.5881342624398862  0.1336414393112304 		Uiso   ? 		O 		-1.13804
O 1.0  		0.28334347911862995 		0.10133477279418981  0.2107150736229982 		Uiso   ? 		O 		-0.55463
O 1.0  		0.28271623478242464 		0.6011384826773973  0.21085649313549687 		Uiso   ? 		O 		-0.55463
O 1.0  		0.7834708084686307 		0.0986357836882913  0.209159458985513 		Uiso   ? 		O 		-0.55463
O 1.0  		0.7826398715829437 		0.6001570320934342  0.21000797606050495 		Uiso   ? 		O 		-0.55463
O 1.0  		0.348720071213342 		0.08759446461870646  0.28920290305975255 		Uiso   ? 		O 		-1.13799
O 1.0  		0.3484608661537792 		0.5881342624398862  0.2903342591597418 		Uiso   ? 		O 		-1.13799
O 1.0  		0.8506547276011234 		0.088085189910688  0.2886372250097579 		Uiso   ? 		O 		-1.13799
O 1.0  		0.8494557514387939 		0.5888703503778585  0.28807154695976334 		Uiso   ? 		O 		-1.13799
O 1.0  		0.35070664577601934 		0.1791147315732653  0.1343485368737237 		Uiso   ? 		O 		-1.13805
O 1.0  		0.34996551930378106 		0.6803906173324173  0.13420711736122504 		Uiso   ? 		O 		-1.13805
O 1.0  		0.850025681404982 		0.17862400628128375  0.13420711736122504 		Uiso   ? 		O 		-1.13805
O 1.0  		0.8503382081715436 		0.6781823535185003  0.13378285882372906 		Uiso   ? 		O 		-1.13805
O 1.0  		0.3492432862922969 		0.1778879183433114  0.28835438598476065 		Uiso   ? 		O 		-1.13799
O 1.0  		0.3507650154019712 		0.676464814996565  0.28934432257225123 		Uiso   ? 		O 		-1.13799
O 1.0  		0.8488076814390214 		0.1778879183433114  0.2886372250097579 		Uiso   ? 		O 		-1.13799
O 1.0  		0.8507150450710341 		0.6806359799784082  0.2884958054972593 		Uiso   ? 		O 		-1.13799
O 1.0  		0.12342414809600262 		0.22475218372754935  0.13392427833622772 		Uiso   ? 		O 		-1.13804
O 1.0  		0.12307513262299122 		0.7255373441947198  0.13448995638622235 		Uiso   ? 		O 		-1.13804
O 1.0  		0.6206992947922708 		0.2222985572676416  0.1343485368737237 		Uiso   ? 		O 		-1.13804
O 1.0  		0.6238005866676599 		0.7270095200706645  0.13406569784872638 		Uiso   ? 		O 		-1.13804
O 1.0  		0.1243639191987694 		0.22450682108155856  0.28736444939727007 		Uiso   ? 		O 		-1.13799
O 1.0  		0.12157890379383662 		0.7238198056727845  0.2889200640347553 		Uiso   ? 		O 		-1.13799
O 1.0  		0.6226621709343646 		0.226224359603494  0.2890614835472539 		Uiso   ? 		O 		-1.13799
O 1.0  		0.6226723971151479 		0.7260280694867014  0.2886372250097579 		Uiso   ? 		O 		-1.13799
O 1.0  		0.2817574398760267 		0.09986259691824517  0.36542802029652843 		Uiso   ? 		O 		-0.55540
O 1.0  		0.2844971689516617 		0.599175581509471  0.36599369834652307 		Uiso   ? 		O 		-0.55540
O 1.0  		0.7832999852645812 		0.10084404750220827  0.3652866007840298 		Uiso   ? 		O 		-0.55540
O 1.0  		0.78130798948095 		0.6008931200314064  0.3651451812715311 		Uiso   ? 		O 		-0.55540
O 1.0  		0.3367266558185105 		0.09888114633428208  0.21029081508550226 		Uiso   ? 		O 		-0.55463
O 1.0  		0.3389932611043178 		0.6006477573854156  0.21099791264799553 		Uiso   ? 		O 		-0.55463
O 1.0  		0.8369285214822235 		0.09888114633428208  0.21057365411049958 		Uiso   ? 		O 		-0.55463
O 1.0  		0.8377317672843085 		0.5994209441554619  0.2107150736229982 		Uiso   ? 		O 		-0.55463
O 1.0  		0.34163152502778543 		0.10231622337815291  0.3661351178590217 		Uiso   ? 		O 		-0.55538
O 1.0  		0.3397117444119072 		0.5986848562174895  0.36443808370903785 		Uiso   ? 		O 		-0.55538
O 1.0  		0.8379581029984391 		0.09839042104230053  0.3652866007840298 		Uiso   ? 		O 		-0.55538
O 1.0  		0.8363910875594669 		0.5984394935714987  0.3652866007840298 		Uiso   ? 		O 		-0.55538
O 1.0  		0.3381692386475874 		0.15531455491216017  0.21000797606050495 		Uiso   ? 		O 		-0.55463
O 1.0  		0.3395770856212286 		0.6553636274413583  0.2111393321604942 		Uiso   ? 		O 		-0.55463
O 1.0  		0.8386164638290622 		0.15580528020414175  0.209159458985513 		Uiso   ? 		O 		-0.55463
O 1.0  		0.8398863569440862 		0.6585533418392385  0.21099791264799553 		Uiso   ? 		O 		-0.55463
O 1.0  		0.12315434355365593 		0.31430954951418194  0.13307576126123577 		Uiso   ? 		O 		-1.13804
O 1.0  		0.12222479863167246 		0.8143586220433802  0.1336414393112304 		Uiso   ? 		O 		-1.13804
O 1.0  		0.6224164381146022 		0.3145549121601728  0.13378285882372906 		Uiso   ? 		O 		-1.13804
O 1.0  		0.623072932435222 		0.8160761605653156  0.1333586002862331 		Uiso   ? 		O 		-1.13804
O 1.0  		0.3379238791298257 		0.15482382962017863  0.36443808370903785 		Uiso   ? 		O 		-0.55535
O 1.0  		0.33695266723956213 		0.6526646383354598  0.3661351178590217 		Uiso   ? 		O 		-0.55535
O 1.0  		0.8376350257580153 		0.15384237903621553  0.3648623422465338 		Uiso   ? 		O 		-0.55535
O 1.0  		0.8410867616643511 		0.6558543527333399  0.3651451812715311 		Uiso   ? 		O 		-0.55535
O 1.0  		0.1325047713991456 		0.24928844832662678  0.21029081508550226 		Uiso   ? 		O 		-0.55463
O 1.0  		0.13400242878623564 		0.7490921582098342  0.2107150736229982 		Uiso   ? 		O 		-0.55463
O 1.0  		0.6329344013349246 		0.2463440965747375  0.21085649313549687 		Uiso   ? 		O 		-0.55463
O 1.0  		0.6342612355179651 		0.7483560702718618  0.2104322345980009 		Uiso   ? 		O 		-0.55463
O 1.0  		0.13425283622295042 		0.24683482186671904  0.3652866007840298 		Uiso   ? 		O 		-0.55537
O 1.0  		0.13276683357457916 		0.744920993227991  0.3648623422465338 		Uiso   ? 		O 		-0.55537
O 1.0  		0.6351907804399486 		0.24830699774266368  0.3661351178590217 		Uiso   ? 		O 		-0.55537
O 1.0  		0.6352667453115963 		0.7490921582098342  0.36556943980902706 		Uiso   ? 		O 		-0.55537
O 1.0  		0.13420798784572058 		0.3032682304445971  0.21014939557300358 		Uiso   ? 		O 		-0.55463
O 1.0  		0.13556769137419328 		0.805770929433703  0.21000797606050495 		Uiso   ? 		O 		-0.55463
O 1.0  		0.6351940755078873 		0.302286779860634  0.2114221711854915 		Uiso   ? 		O 		-0.55463
O 1.0  		0.6344048055904805 		0.8060162920796939  0.21085649313549687 		Uiso   ? 		O 		-0.55463
O 1.0  		0.13533617739823262 		0.30424968102856026  0.36472092273403517 		Uiso   ? 		O 		-0.55534
O 1.0  		0.13436496550796906 		0.8020904897438415  0.3650037617590325 		Uiso   ? 		O 		-0.55534
O 1.0  		0.634311245473137 		0.3017960545686525  0.3648623422465338 		Uiso   ? 		O 		-0.55534
O 1.0  		0.6349765374166048 		0.8050348414957308  0.36415524468404054 		Uiso   ? 		O 		-0.55534
O 1.0  		0.12245113434580294 		0.31332809893021885  0.28764728842226733 		Uiso   ? 		O 		-1.13799
O 1.0  		0.12420294887350258 		0.8153400726273433  0.2887786445222566 		Uiso   ? 		O 		-1.13799
O 1.0  		0.6230627062544387 		0.3162724506821082  0.2890614835472539 		Uiso   ? 		O 		-1.13799
O 1.0  		0.623767344020227 		0.8153400726273433  0.2889200640347553 		Uiso   ? 		O 		-1.13799
O 1.0  		0.18997902103235395 		0.3047404063205418  0.20986655654800626 		Uiso   ? 		O 		-0.55463
O 1.0  		0.1893846460415809 		0.8050348414957308  0.21085649313549687 		Uiso   ? 		O 		-0.55463
O 1.0  		0.6902290301412355 		0.302286779860634  0.21085649313549687 		Uiso   ? 		O 		-0.55463
O 1.0  		0.6907059036349581 		0.8042987535577585  0.20986655654800626 		Uiso   ? 		O 		-0.55463
O 1.0  		0.19046094244502948 		0.30400431838256947  0.3648623422465338 		Uiso   ? 		O 		-0.55549
O 1.0  		0.1888851293832095 		0.8023358523898323  0.3651451812715311 		Uiso   ? 		O 		-0.55549
O 1.0  		0.6908993700036563 		0.3027775051526156  0.3648623422465338 		Uiso   ? 		O 		-0.55549
O 1.0  		0.6895953093281417 		0.8067523800176661  0.3648623422465338 		Uiso   ? 		O 		-0.55549
O 1.0  		0.1340162743280366 		0.24806163509667287  0.24112026881020937 		Uiso   ? 		O 		-0.55471
O 1.0  		0.13446675495321536 		0.744920993227991  0.24225162491019864 		Uiso   ? 		O 		-0.55471
O 1.0  		0.635247721507965 		0.24757090980469132  0.24211020539769995 		Uiso   ? 		O 		-0.55471
O 1.0  		0.6313761835188003 		0.7481107076258711  0.2414031078352067 		Uiso   ? 		O 		-0.55471
O 1.0  		0.29765448367642006 		0.19285503974874868  0.16602650767342275 		Uiso   ? 		O 		-0.61064
O 1.0  		0.2994873109947204 		0.6929041122779468  0.16630934669842004 		Uiso   ? 		O 		-0.61064
O 1.0  		0.7981498523030633 		0.1908921385808225  0.16659218572341736 		Uiso   ? 		O 		-0.61064
O 1.0  		0.7979892552797972 		0.6929041122779468  0.16503657108593217 		Uiso   ? 		O 		-0.61064
O 1.0  		0.13715877853574973 		0.30449504367455105  0.24112026881020937 		Uiso   ? 		O 		-0.55471
O 1.0  		0.13315576316485633 		0.8030719403278046  0.24055459076021474 		Uiso   ? 		O 		-0.55471
O 1.0  		0.6345566049908987 		0.302286779860634  0.24253446393519593 		Uiso   ? 		O 		-0.55471
O 1.0  		0.6317146485179495 		0.8023358523898323  0.2414031078352067 		Uiso   ? 		O 		-0.55471
O 1.0  		0.19127803378891542 		0.30351359309058795  0.2409788492977107 		Uiso   ? 		O 		-0.55471
O 1.0  		0.18957954096821455 		0.8015997644518599  0.241685946860204 		Uiso   ? 		O 		-0.55471
O 1.0  		0.6893221283839011 		0.3030228677986064  0.24211020539769995 		Uiso   ? 		O 		-0.55471
O 1.0  		0.6883837858390696 		0.8013544018058691  0.24083742978521205 		Uiso   ? 		O 		-0.55471
O 1.0  		0.2992557970187597 		0.19138286387280404  0.3204566153219557 		Uiso   ? 		O 		-0.61071
O 1.0  		0.2982605134059118 		0.6904504858180391  0.32088087385945163 		Uiso   ? 		O 		-0.61071
O 1.0  		0.7983054014073765 		0.1916282265187948  0.32116371288444895 		Uiso   ? 		O 		-0.61071
O 1.0  		0.797800836830052 		0.691677299047993  0.32116371288444895 		Uiso   ? 		O 		-0.61071
O 1.0  		0.3002371214308176 		0.08072431053096478  0.1814412345357763 		Uiso   ? 		O 		-0.98192
O 1.0  		0.30116304699178337 		0.5815094709981353  0.1824311711232669 		Uiso   ? 		O 		-0.98192
O 1.0  		0.8017796668193722 		0.08170576111492787  0.1796027808732938 		Uiso   ? 		O 		-0.98192
O 1.0  		0.8012422328966156 		0.5812641083521446  0.18101697599828034 		Uiso   ? 		O 		-0.98192
O 1.0  		0.30218240232721555 		0.08121503582294633  0.3365784397468025 		Uiso   ? 		O 		-0.98194
O 1.0  		0.3018815302993727 		0.5795465698302091  0.3362956007218052 		Uiso   ? 		O 		-0.98194
O 1.0  		0.8022944575774799 		0.0814603984689371  0.335164244621816 		Uiso   ? 		O 		-0.98194
O 1.0  		0.7998117427583253 		0.5805280204141722  0.33587134218430925 		Uiso   ? 		O 		-0.98194
O 1.0  		0.3555864693407306 		0.1361762685248798  0.18059271746078437 		Uiso   ? 		O 		-0.98193
O 1.0  		0.35700311393721984 		0.6379428795760134  0.18115839551077897 		Uiso   ? 		O 		-0.98193
O 1.0  		0.8545133939704664 		0.1361762685248798  0.18073413697328303 		Uiso   ? 		O 		-0.98193
O 1.0  		0.8560198489804045 		0.6376975169300226  0.18101697599828034 		Uiso   ? 		O 		-0.98193
O 1.0  		0.3582020900995494 		0.1371577191088429  0.3350228251093173 		Uiso   ? 		O 		-0.98194
O 1.0  		0.3571739371412693 		0.6357346157620964  0.33643702023430383 		Uiso   ? 		O 		-0.98194
O 1.0  		0.8567938447980749 		0.13691235646285213  0.3361541812093065 		Uiso   ? 		O 		-0.98194
O 1.0  		0.8551041496002219 		0.6367160663460596  0.335164244621816 		Uiso   ? 		O 		-0.98194
O 1.0  		0.3024157828131796 		0.1386298949847875  0.18030987843578705 		Uiso   ? 		O 		-0.98193
O 1.0  		0.3021806494762012 		0.6379428795760134  0.1814412345357763 		Uiso   ? 		O 		-0.98193
O 1.0  		0.800696439303079 		0.13691235646285213  0.18059271746078437 		Uiso   ? 		O 		-0.98193
O 1.0  		0.8018019856909422 		0.6372067916380411  0.18101697599828034 		Uiso   ? 		O 		-0.98193
O 1.0  		0.3026764164306777 		0.1361762685248798  0.33587134218430925 		Uiso   ? 		O 		-0.98194
O 1.0  		0.30150151199093256 		0.6357346157620964  0.3360127616968079 		Uiso   ? 		O 		-0.98194
O 1.0  		0.8020042496824884 		0.13740308175483368  0.3350228251093173 		Uiso   ? 		O 		-0.98194
O 1.0  		0.8009760967242083 		0.6359799784080872  0.33572992267181057 		Uiso   ? 		O 		-0.98194
O 1.0  		0.2124659546229228 		0.3152910000981451  0.13350001979873174 		Uiso   ? 		O 		-1.13804
O 1.0  		0.21348169059733726 		0.8158307979193249  0.13406569784872638 		Uiso   ? 		O 		-1.13804
O 1.0  		0.7144246827332885 		0.3145549121601728  0.1333586002862331 		Uiso   ? 		O 		-1.13804
O 1.0  		0.7140756672602772 		0.8153400726273433  0.13350001979873174 		Uiso   ? 		O 		-1.13804
O 1.0  		0.30090746129323837 		0.08121503582294633  0.11723677586138624 		Uiso   ? 		O 		-0.98199
O 1.0  		0.3025694654074893 		0.5834723721660615  0.11652967829889296 		Uiso   ? 		O 		-0.98199
O 1.0  		0.8022375165094634 		0.08219648640690942  0.11539832219890371 		Uiso   ? 		O 		-0.98199
O 1.0  		0.8022477426902468 		0.5820001962901168  0.11568116122390103 		Uiso   ? 		O 		-0.98199
O 1.0  		0.3005153502940115 		0.08170576111492787  0.27095978594742587 		Uiso   ? 		O 		-0.98193
O 1.0  		0.30074686426997216 		0.5832270095200707  0.2718083030224178 		Uiso   ? 		O 		-0.98193
O 1.0  		0.8017796668193722 		0.08170576111492787  0.2712426249724232 		Uiso   ? 		O 		-0.98193
O 1.0  		0.801741749554987 		0.583963097458043  0.2718083030224178 		Uiso   ? 		O 		-0.98193
O 1.0  		0.3569271490655722 		0.1371577191088429  0.1173781953738849 		Uiso   ? 		O 		-0.98200
O 1.0  		0.357853074626538 		0.6379428795760134  0.11723677586138624 		Uiso   ? 		O 		-0.98200
O 1.0  		0.8578562956597224 		0.13691235646285213  0.11582258073639969 		Uiso   ? 		O 		-0.98200
O 1.0  		0.8590187831156021 		0.6364707037000688  0.11624683927389565 		Uiso   ? 		O 		-0.98200
O 1.0  		0.35546378958184977 		0.135930905878889  0.27095978594742587 		Uiso   ? 		O 		-0.98194
O 1.0  		0.3552943949357358 		0.636225341054078  0.27209114204741514 		Uiso   ? 		O 		-0.98194
O 1.0  		0.8543578448661534 		0.13544018058690746  0.2699698493599353 		Uiso   ? 		O 		-0.98194
O 1.0  		0.8570494304966199 		0.6372067916380411  0.27067694692242855 		Uiso   ? 		O 		-0.98194
O 1.0  		0.2467849109721339 		0.028216704288939055  -0.02319280004977967 		Uiso   ? 		O 		-0.56721
O 1.0  		0.24863301239017066 		0.525321425066248  -0.023475639074776983 		Uiso   ? 		O 		-0.56721
O 1.0  		0.7506889199788976 		0.02797134164294828  -0.024748414687264887 		Uiso   ? 		O 		-0.56721
O 1.0  		0.7515403092261511 		0.5260575130042203  -0.023475639074776983 		Uiso   ? 		O 		-0.56721
O 1.0  		0.30410690656896794 		0.13691235646285213  -0.036486234224653386 		Uiso   ? 		O 		-0.91724
O 1.0  		0.3035935443687956 		0.6352438904701149  -0.03620339519965607 		Uiso   ? 		O 		-0.91724
O 1.0  		0.8021181318185213 		0.135930905878889  -0.03860752691213323 		Uiso   ? 		O 		-0.91724
O 1.0  		0.8027241615480131 		0.6335263519481794  -0.03662765373715204 		Uiso   ? 		O 		-0.91724
O 1.0  		0.06170754541507152 		0.21223868878201985  0.009616526849908644 		Uiso   ? 		O 		-0.60244
O 1.0  		0.05938917732307786 		0.7137599371871627  0.009192268312412674 		Uiso   ? 		O 		-0.60244
O 1.0  		0.5580188492859887 		0.21125723819805675  0.011030721974895208 		Uiso   ? 		O 		-0.60244
O 1.0  		0.5601956441583473 		0.7132692118951811  0.009899365874905957 		Uiso   ? 		O 		-0.60244
O 1.0  		0.11787398466887053 		0.2671999214839533  -0.03634481471215473 		Uiso   ? 		O 		-0.91724
O 1.0  		0.12094240719882743 		0.7714201589949947  -0.03790042934963995 		Uiso   ? 		O 		-0.91724
O 1.0  		0.6179948375419828 		0.2691628226518795  -0.03719333178714666 		Uiso   ? 		O 		-0.91724
O 1.0  		0.6241344093748903 		0.7684758072431054  -0.03804184886213861 		Uiso   ? 		O 		-0.91724
O 1.0  		0.16898880323192939 		0.319707527725979  -0.03719333178714666 		Uiso   ? 		O 		-0.91715
O 1.0  		0.1715336373809306 		0.8224555893610757  -0.03747617081214398 		Uiso   ? 		O 		-0.91715
O 1.0  		0.6708905902742786 		0.319707527725979  -0.03733475129964532 		Uiso   ? 		O 		-0.91715
O 1.0  		0.6728701690740442 		0.8187751496712141  -0.03874894642463189 		Uiso   ? 		O 		-0.91715
O 1.0  		0.17195389409971557 		0.2703896358818334  -0.03775900983714129 		Uiso   ? 		O 		-0.91724
O 1.0  		0.17087759769626695 		0.7714201589949947  -0.038466107399634575 		Uiso   ? 		O 		-0.91724
O 1.0  		0.6680679818980395 		0.266463833545981  -0.036486234224653386 		Uiso   ? 		O 		-0.91724
O 1.0  		0.6742820900446593 		0.7684758072431054  -0.038466107399634575 		Uiso   ? 		O 		-0.91724
O 1.0  		0.11851145518585911 		0.2671999214839533  0.026586868349747425 		Uiso   ? 		O 		-0.98153
O 1.0  		0.11758191026387554 		0.7672489940131515  0.02517267322476086 		Uiso   ? 		O 		-0.98153
O 1.0  		0.6155741117097978 		0.26474629502404556  0.026304029324750112 		Uiso   ? 		O 		-0.98153
O 1.0  		0.6165088348936114 		0.7672489940131515  0.026304029324750112 		Uiso   ? 		O 		-0.98153
O 1.0  		0.12524674923351972 		0.2249975463735401  0.00820233172492208 		Uiso   ? 		O 		-1.13516
O 1.0  		0.12328762279532071 		0.7255373441947198  0.0073538146499301385 		Uiso   ? 		O 		-1.13516
O 1.0  		0.620421065929077 		0.2213171066836785  0.00890942928741536 		Uiso   ? 		O 		-1.13516
O 1.0  		0.6230557104915269 		0.7238198056727845  0.00820233172492208 		Uiso   ? 		O 		-1.13516
O 1.0  		0.17343582275111308 		0.3226518794778683  0.02715254639974205 		Uiso   ? 		O 		-0.98153
O 1.0  		0.17150076803549844 		0.8219648640690942  0.027011126887243397 		Uiso   ? 		O 		-0.98153
O 1.0  		0.6708905902742786 		0.319707527725979  0.02686970737474474 		Uiso   ? 		O 		-0.98153
O 1.0  		0.6727979539062913 		0.8224555893610757  0.025738351274755485 		Uiso   ? 		O 		-0.98153
O 1.0  		0.1739144490958499 		0.26793600942192564  0.02686970737474474 		Uiso   ? 		O 		-0.98153
O 1.0  		0.17109656434548492 		0.7667582687211699  0.024748414687264887 		Uiso   ? 		O 		-0.98153
O 1.0  		0.6695794848269305 		0.2652370203160271  0.025879770787254144 		Uiso   ? 		O 		-0.98153
O 1.0  		0.671723410353857 		0.7667582687211699  0.027435385424739365 		Uiso   ? 		O 		-0.98153
O 1.0  		0.22313774642157752 		0.37785847482579255  -0.024889834199763546 		Uiso   ? 		O 		-0.56686
O 1.0  		0.22631125346471953 		0.8788889979389538  -0.022627121999785043 		Uiso   ? 		O 		-0.56686
O 1.0  		0.724866389113918 		0.3736873098439494  -0.0227685415122837 		Uiso   ? 		O 		-0.56686
O 1.0  		0.7267649551230828 		0.8747178329571107  -0.0250312537122622 		Uiso   ? 		O 		-0.56686
O 1.0  		0.06172611458274667 		0.2632741191481009  -0.02163718541229445 		Uiso   ? 		O 		-0.56684
O 1.0  		0.06361820411502289 		0.7689665325350868  -0.025879770787254144 		Uiso   ? 		O 		-0.56684
O 1.0  		0.5637112355616561 		0.26769064677593485  -0.0250312537122622 		Uiso   ? 		O 		-0.56684
O 1.0  		0.5648320560492557 		0.7650407301992345  -0.025314092737259517 		Uiso   ? 		O 		-0.56684
O 1.0  		0.1770262914451012 		0.21763666699381687  -0.02517267322476086 		Uiso   ? 		O 		-0.56684
O 1.0  		0.1760157337325169 		0.7196486406909413  -0.026304029324750112 		Uiso   ? 		O 		-0.56684
O 1.0  		0.6687590984151058 		0.2117479634900383  -0.02517267322476086 		Uiso   ? 		O 		-0.56684
O 1.0  		0.6754310562518169 		0.7142506624791443  -0.02404131712477161 		Uiso   ? 		O 		-0.56684
O 1.0  		0.06031969616704075 		0.2613112179801747  0.013293434174873713 		Uiso   ? 		O 		-0.59988
O 1.0  		0.05962023666308264 		0.7647953675532437  0.010182204899903268 		Uiso   ? 		O 		-0.59988
O 1.0  		0.5588063663523812 		0.264255569732064  0.011172141487393865 		Uiso   ? 		O 		-0.59988
O 1.0  		0.5598549716722278 		0.7652860928452253  0.0097579463624073 		Uiso   ? 		O 		-0.59988
O 1.0  		0.17632955871413675 		0.21199332613602906  0.011172141487393865 		Uiso   ? 		O 		-0.59988
O 1.0  		0.17497503344749418 		0.7120423986652273  0.009192268312412674 		Uiso   ? 		O 		-0.59988
O 1.0  		0.6707196534112402 		0.20929433703013053  0.010747882949897895 		Uiso   ? 		O 		-0.59988
O 1.0  		0.6738033500409335 		0.7105702227892826  0.010323624412401925 		Uiso   ? 		O 		-0.59988
O 1.0  		0.29739691780888267 		0.02404553930709589  0.012727756124879086 		Uiso   ? 		O 		-0.59987
O 1.0  		0.29956491505839344 		0.5243399744822849  0.010323624412401925 		Uiso   ? 		O 		-0.59987
O 1.0  		0.799879234300204 		0.024781627245068213  0.011313560999892521 		Uiso   ? 		O 		-0.59987
O 1.0  		0.7991052384825336 		0.5255667877122387  0.012727756124879086 		Uiso   ? 		O 		-0.59987
O 1.0  		0.22942252751902575 		0.2654823829620179  0.009899365874905957 		Uiso   ? 		O 		-0.60243
O 1.0  		0.2272421132856494 		0.7643046422612623  0.010182204899903268 		Uiso   ? 		O 		-0.60243
O 1.0  		0.7235255957300875 		0.2600844047502209  0.01216207807488446 		Uiso   ? 		O 		-0.60243
O 1.0  		0.7258579397067592 		0.7628324663853175  0.011879239049887148 		Uiso   ? 		O 		-0.60243
O 1.0  		0.2506098477330544 		0.14083815879870448  0.01343485368737237 		Uiso   ? 		O 		-0.59988
O 1.0  		0.24739105436061465 		0.6384336048679949  0.010182204899903268 		Uiso   ? 		O 		-0.59988
O 1.0  		0.7471336417763011 		0.1398567082147414  0.010040785387404612 		Uiso   ? 		O 		-0.59988
O 1.0  		0.7454592206781845 		0.6367160663460596  0.010606463437399238 		Uiso   ? 		O 		-0.59988
O 1.0  		0.4118491954848668 		0.18623024830699775  -0.023334219562278328 		Uiso   ? 		O 		-0.56685
O 1.0  		0.40966230477460197 		0.6897143978800668  -0.026162609812251457 		Uiso   ? 		O 		-0.56685
O 1.0  		0.9099020877027003 		0.18745706153695163  -0.026162609812251457 		Uiso   ? 		O 		-0.56685
O 1.0  		0.9118904641253138 		0.6882422220041222  -0.024748414687264887 		Uiso   ? 		O 		-0.56685
O 1.0  		0.29655575474241247 		0.025763077829031308  -0.0227685415122837 		Uiso   ? 		O 		-0.56684
O 1.0  		0.30125835996014116 		0.5290018647561096  -0.024606995174766232 		Uiso   ? 		O 		-0.56684
O 1.0  		0.8003875485814232 		0.02919815487290215  -0.023758478099774296 		Uiso   ? 		O 		-0.56684
O 1.0  		0.7993089310320152 		0.5238492491903033  -0.022061443949790416 		Uiso   ? 		O 		-0.56684
O 1.0  		0.2485747564232078 		0.14059279615271372  -0.021071507362299822 		Uiso   ? 		O 		-0.56684
O 1.0  		0.24600870766749305 		0.6352438904701149  -0.023758478099774296 		Uiso   ? 		O 		-0.56684
O 1.0  		0.7518084255675508 		0.1398567082147414  -0.025314092737259517 		Uiso   ? 		O 		-0.56684
O 1.0  		0.7482368670182048 		0.6337717145941703  -0.02432415614976892 		Uiso   ? 		O 		-0.56684
O 1.0  		0.12461770303737837 		0.3155363627441359  0.010182204899903268 		Uiso   ? 		O 		-1.13516
O 1.0  		0.1238196354971236 		0.8175483364412602  0.00890942928741536 		Uiso   ? 		O 		-1.13516
O 1.0  		0.6223506994237378 		0.3135734615762097  0.009475107337409987 		Uiso   ? 		O 		-1.13516
O 1.0  		0.6240455728834209 		0.8163215232113064  0.007495234162428795 		Uiso   ? 		O 		-1.13516
O 1.0  		0.22701902363053586 		0.3533222102267151  -0.04935540986203112 		Uiso   ? 		O 		-0.56730
O 1.0  		0.23156607974395152 		0.8558249092158211  -0.04723411717455128 		Uiso   ? 		O 		-0.56730
O 1.0  		0.7311091299410855 		0.34792423201491807  -0.04624418058706068 		Uiso   ? 		O 		-0.56730
O 1.0  		0.7333757352268928 		0.8496908430660517  -0.048365473274540535 		Uiso   ? 		O 		-0.56730
O 1.0  		0.08583012257638128 		0.2932083619589754  -0.045678502537066054 		Uiso   ? 		O 		-0.56739
O 1.0  		0.09037070221290844 		0.800372951221906  -0.04822405376204188 		Uiso   ? 		O 		-0.56739
O 1.0  		0.5904725312823895 		0.3008146039846894  -0.04765837571204725 		Uiso   ? 		O 		-0.56739
O 1.0  		0.5905702467306622 		0.793993522426146  -0.049072570837033806 		Uiso   ? 		O 		-0.56739
O 1.0  		0.07986512365141807 		0.2961527137108647  0.1063474733989897 		Uiso   ? 		O 		-0.59953
O 1.0  		0.08183590482833575 		0.7935027971341644  0.10677173193648568 		Uiso   ? 		O 		-0.59953
O 1.0  		0.5805489107278066 		0.29541662577289235  0.1073374099864803 		Uiso   ? 		O 		-0.59953
O 1.0  		0.5818516731882629 		0.7986554126999706  0.10691315144898433 		Uiso   ? 		O 		-0.59953
O 1.0  		0.14478240517306978 		0.21052115026008442  -0.04822405376204188 		Uiso   ? 		O 		-0.56746
O 1.0  		0.1441639584597124 		0.7120423986652273  -0.04893115132453515 		Uiso   ? 		O 		-0.56746
O 1.0  		0.6365985460796346 		0.20904897438413977  -0.04751695619954859 		Uiso   ? 		O 		-0.56746
O 1.0  		0.6458444577068843 		0.7103248601432919  -0.04794121473704456 		Uiso   ? 		O 		-0.56746
O 1.0  		0.14474721468167817 		0.20365099617234272  0.10705457096148298 		Uiso   ? 		O 		-0.59953
O 1.0  		0.1423783819985566 		0.7012464422416332  0.10846876608646955 		Uiso   ? 		O 		-0.59953
O 1.0  		0.6405020608262075 		0.20070664442045344  0.10677173193648568 		Uiso   ? 		O 		-0.59953
O 1.0  		0.6429242152163279 		0.7032093434095594  0.10719599047398164 		Uiso   ? 		O 		-0.59953
O 1.0  		0.08268443695971844 		0.29541662577289235  0.036486234224653386 		Uiso   ? 		O 		-0.60206
O 1.0  		0.08226968279584262 		0.7952203356560998  0.035072039099666816 		Uiso   ? 		O 		-0.60206
O 1.0  		0.5799026425879701 		0.29369908725095695  0.03705191227464801 		Uiso   ? 		O 		-0.60206
O 1.0  		0.5812294767710107 		0.7957110609480813  0.03408210251217622 		Uiso   ? 		O 		-0.60206
O 1.0  		0.1434065349568366 		0.20266954558837963  0.03563771714966144 		Uiso   ? 		O 		-0.60206
O 1.0  		0.14429959117237026 		0.7029639807635687  0.033375004949682936 		Uiso   ? 		O 		-0.60206
O 1.0  		0.6420793024459628 		0.20046128177446265  0.03563771714966144 		Uiso   ? 		O 		-0.60206
O 1.0  		0.6418858360772646 		0.7019825301796055  0.03436494153717353 		Uiso   ? 		O 		-0.60206
O 1.0  		0.330225975821805 		0.04465600157032094  0.03662765373715204 		Uiso   ? 		O 		-0.60206
O 1.0  		0.3284223984879191 		0.5459318873294731  0.03563771714966144 		Uiso   ? 		O 		-0.60206
O 1.0  		0.8335582530024445 		0.04539208950829326  0.03535487812466413 		Uiso   ? 		O 		-0.60206
O 1.0  		0.8322125253586499 		0.5471587005594268  0.035496297637162784 		Uiso   ? 		O 		-0.60206
O 1.0  		0.2404885241448887 		0.10869565217391305  0.03747617081214398 		Uiso   ? 		O 		-0.60206
O 1.0  		0.23825116884349584 		0.6082539994111297  0.03493061958716816 		Uiso   ? 		O 		-0.60206
O 1.0  		0.7389006580165168 		0.10894101481990383  0.03450636104967219 		Uiso   ? 		O 		-0.60206
O 1.0  		0.7361966554021848 		0.6062910982432035  0.03563771714966144 		Uiso   ? 		O 		-0.60206
O 1.0  		0.2480093874149831 		0.024290901953086665  0.0130105951498764 		Uiso   ? 		O 		-0.60243
O 1.0  		0.24953991414750526 		0.5245853371282756  0.012444917099881773 		Uiso   ? 		O 		-0.60243
O 1.0  		0.7472714819759293 		0.02453626459907744  0.010182204899903268 		Uiso   ? 		O 		-0.60243
O 1.0  		0.7449507927379763 		0.5196780842084601  0.0130105951498764 		Uiso   ? 		O 		-0.60243
O 1.0  		0.06438890486475463 		0.21420158994994604  -0.0250312537122622 		Uiso   ? 		O 		-0.56720
O 1.0  		0.06338714477501833 		0.7179311021690059  -0.026162609812251457 		Uiso   ? 		O 		-0.56720
O 1.0  		0.5605622548770546 		0.21591912847188147  -0.023475639074776983 		Uiso   ? 		O 		-0.56720
O 1.0  		0.566866173437123 		0.7176857395230151  -0.025314092737259517 		Uiso   ? 		O 		-0.56720
O 1.0  		0.38729246705404946 		0.19236431445676713  -0.04794121473704456 		Uiso   ? 		O 		-0.56740
O 1.0  		0.3831843671699709 		0.6941309255079008  -0.04893115132453515 		Uiso   ? 		O 		-0.56740
O 1.0  		0.8842083720965229 		0.1908921385808225  -0.0500625074245244 		Uiso   ? 		O 		-0.56740
O 1.0  		0.8844727554179159 		0.6929041122779468  -0.04765837571204725 		Uiso   ? 		O 		-0.56740
O 1.0  		0.3246947548643487 		0.04931789184414565  -0.04765837571204725 		Uiso   ? 		O 		-0.56734
O 1.0  		0.3339911310827263 		0.55451957993915  -0.04765837571204725 		Uiso   ? 		O 		-0.56734
O 1.0  		0.8275451106323126 		0.050790067720090294  -0.049072570837033806 		Uiso   ? 		O 		-0.56734
O 1.0  		0.829647369190959 		0.5501030523113162  -0.046668439124556656 		Uiso   ? 		O 		-0.56734
O 1.0  		0.33276058379002293 		0.04760035332221023  0.10677173193648568 		Uiso   ? 		O 		-0.59953
O 1.0  		0.3290927383503398 		0.5464226126214545  0.10677173193648568 		Uiso   ? 		O 		-0.59953
O 1.0  		0.8316546390743266 		0.04710962803022868  0.10606463437399238 		Uiso   ? 		O 		-0.59953
O 1.0  		0.8322365970812342 		0.5459318873294731  0.10762024901147761 		Uiso   ? 		O 		-0.59953
O 1.0  		0.24411845232018653 		0.1121307292177839  -0.0455370830245674 		Uiso   ? 		O 		-0.56743
O 1.0  		0.24449439663165298 		0.6062910982432035  -0.047375536687049934 		Uiso   ? 		O 		-0.56743
O 1.0  		0.7413102650798946 		0.10526057513004221  -0.04723411717455128 		Uiso   ? 		O 		-0.56743
O 1.0  		0.744654595327086 		0.6040828344292866  -0.04779979522454591 		Uiso   ? 		O 		-0.56743
O 1.0  		0.235068864177506 		0.10550593777603298  0.10790308803647493 		Uiso   ? 		O 		-0.59953
O 1.0  		0.2383738486023767 		0.6084993620571205  0.1073374099864803 		Uiso   ? 		O 		-0.59953
O 1.0  		0.737649788705124 		0.10771420158994996  0.10592321486149373 		Uiso   ? 		O 		-0.59953
O 1.0  		0.7372679038866804 		0.6080086367651389  0.10648889291148836 		Uiso   ? 		O 		-0.59953
O 1.0  		0.21508157538174155 		0.3162724506821082  0.00933368782491133 		Uiso   ? 		O 		-1.13516
O 1.0  		0.21381686052854765 		0.8160761605653156  0.008626590262418047 		Uiso   ? 		O 		-1.13516
O 1.0  		0.7106151337310935 		0.3116105604082835  0.009475107337409987 		Uiso   ? 		O 		-1.13516
O 1.0  		0.7130044187757816 		0.8136225341054079  0.008343751237420734 		Uiso   ? 		O 		-1.13516
O 1.0  		0.2642663871481389 		0.3653449798802631  -0.008343751237420734 		Uiso   ? 		O 		-0.58277
O 1.0  		0.26339378329417185 		0.8646579644714889  -0.00608103903744223 		Uiso   ? 		O 		-0.58277
O 1.0  		0.7597582785292106 		0.3584748257925214  -0.005232521962450291 		Uiso   ? 		O 		-0.58277
O 1.0  		0.7621804329193309 		0.8609775247816273  -0.005656780499946261 		Uiso   ? 		O 		-0.58277
O 1.0  		0.07531118543407953 		0.3138188242222004  -0.0032526487874691 		Uiso   ? 		O 		-0.58279
O 1.0  		0.07741576513868531 		0.8195112376091864  -0.00820233172492208 		Uiso   ? 		O 		-0.58279
O 1.0  		0.5758658162746988 		0.31749926391206207  -0.005515360987447604 		Uiso   ? 		O 		-0.58279
O 1.0  		0.5790633950404249 		0.8173029737952695  -0.009616526849908644 		Uiso   ? 		O 		-0.58279
O 1.0  		0.12457543544911956 		0.17690646775934832  -0.00848517074991939 		Uiso   ? 		O 		-0.58279
O 1.0  		0.12344219797765443 		0.678673078810482  -0.011172141487393865 		Uiso   ? 		O 		-0.58279
O 1.0  		0.6170531185952574 		0.1742074786534498  -0.0065052975749382 		Uiso   ? 		O 		-0.58279
O 1.0  		0.622016357430484 		0.6749926391206204  -0.0069295561124341695 		Uiso   ? 		O 		-0.58279
O 1.0  		0.39914658136628356 		0.2249975463735401  -0.0065052975749382 		Uiso   ? 		O 		-0.58279
O 1.0  		0.3942213901383191 		0.7272548827166553  -0.007919492699924766 		Uiso   ? 		O 		-0.58279
O 1.0  		0.8978698134465377 		0.22671508489547554  -0.008343751237420734 		Uiso   ? 		O 		-0.58279
O 1.0  		0.8981823402130993 		0.7262734321326921  -0.005798200012444917 		Uiso   ? 		O 		-0.58279
O 1.0  		0.34956026035783283 		0.038276572774560806  -0.006222458549940886 		Uiso   ? 		O 		-0.58278
O 1.0  		0.3524161927154601 		0.5424968102856021  -0.006222458549940886 		Uiso   ? 		O 		-0.58278
O 1.0  		0.8507194923700084 		0.04146628717244087  -0.00820233172492208 		Uiso   ? 		O 		-0.58278
O 1.0  		0.8527648098606383 		0.541515359701639  -0.004242585374959695 		Uiso   ? 		O 		-0.58278
O 1.0  		0.21105930888923885 		0.088085189910688  -0.0036769073249650693 		Uiso   ? 		O 		-0.58279
O 1.0  		0.20989967854923 		0.5846991853960154  -0.006646717087436856 		Uiso   ? 		O 		-0.58279
O 1.0  		0.7110398867577744 		0.08636765138875258  -0.007778073187426108 		Uiso   ? 		O 		-0.58279
O 1.0  		0.7115473084509698 		0.5824909215820984  -0.005232521962450291 		Uiso   ? 		O 		-0.58279
O 1.0  		0.21127962276243692 		0.04220237511041319  -0.003818326837463726 		Uiso   ? 		O 		-0.58355
O 1.0  		0.21204120159624176 		0.540533909117676  -0.00608103903744223 		Uiso   ? 		O 		-0.58355
O 1.0  		0.7129929913550409 		0.040975561880459324  -0.007212395137431482 		Uiso   ? 		O 		-0.58355
O 1.0  		0.7118903020830487 		0.5368534694278144  -0.006222458549940886 		Uiso   ? 		O 		-0.58355
O 1.0  		0.39511514394893227 		0.08391402492884485  -0.007070975624932826 		Uiso   ? 		O 		-0.58356
O 1.0  		0.3990335271682073 		0.5881342624398862  -0.005656780499946261 		Uiso   ? 		O 		-0.58356
O 1.0  		0.8977858788899988 		0.08587692609677103  -0.007778073187426108 		Uiso   ? 		O 		-0.58356
O 1.0  		0.8976493535893171 		0.5866620865639416  -0.005798200012444917 		Uiso   ? 		O 		-0.58356
O 1.0  		0.17110172592342704 		0.37663166159583866  -0.023758478099774296 		Uiso   ? 		O 		-0.56721
O 1.0  		0.17610663172693392 		0.8796250858769261  -0.02404131712477161 		Uiso   ? 		O 		-0.56721
O 1.0  		0.6746705649989804 		0.3761409363038571  -0.0227685415122837 		Uiso   ? 		O 		-0.56721
O 1.0  		0.6760455426271895 		0.8756992835410737  -0.02559693176225683 		Uiso   ? 		O 		-0.56721
O 1.0  		0.35264410297154875 		0.22548827166552166  -0.008626590262418047 		Uiso   ? 		O 		-0.58355
O 1.0  		0.34816796381082765 		0.7265187947786829  -0.0069295561124341695 		Uiso   ? 		O 		-0.58355
O 1.0  		0.8520946159822402 		0.22696044754146633  -0.00820233172492208 		Uiso   ? 		O 		-0.58355
O 1.0  		0.8522844629899209 		0.7262734321326921  -0.00608103903744223 		Uiso   ? 		O 		-0.58355
O 1.0  		0.0790937409477523 		0.17518892923741292  -0.007070975624932826 		Uiso   ? 		O 		-0.58356
O 1.0  		0.07800217044456725 		0.6791638041024635  -0.009616526849908644 		Uiso   ? 		O 		-0.58356
O 1.0  		0.5712538494083754 		0.17567965452939446  -0.006363878062439543 		Uiso   ? 		O 		-0.58356
O 1.0  		0.5759717287258406 		0.6759740897045834  -0.00820233172492208 		Uiso   ? 		O 		-0.58356
O 1.0  		0.11975547471836283 		0.36190990283639224  -0.005232521962450291 		Uiso   ? 		O 		-0.58354
O 1.0  		0.12272528921202314 		0.8646579644714889  -0.007778073187426108 		Uiso   ? 		O 		-0.58354
O 1.0  		0.6223604709685651 		0.36289135342035533  -0.005515360987447604 		Uiso   ? 		O 		-0.58354
O 1.0  		0.6245284682180758 		0.8631857885955442  -0.007919492699924766 		Uiso   ? 		O 		-0.58354
O 1.0  		0.22610601869831343 		0.2698989105898518  -0.025879770787254144 		Uiso   ? 		O 		-0.56721
O 1.0  		0.22623012701512965 		0.7682304445971145  -0.026586868349747425 		Uiso   ? 		O 		-0.56721
O 1.0  		0.7217775309062826 		0.2625380312101286  -0.022627121999785043 		Uiso   ? 		O 		-0.56721
O 1.0  		0.7252051950900341 		0.7657768181372069  -0.02319280004977967 		Uiso   ? 		O 		-0.56721
O 1.0  		0.28179030922145887 		0.10035332221022672  -0.06477013672438468 		Uiso   ? 		O 		-0.72725
O 1.0  		0.28194728688370735 		0.599175581509471  -0.0660429123368726 		Uiso   ? 		O 		-0.72725
O 1.0  		0.7787872270545332 		0.09691824516635589  -0.0660429123368726 		Uiso   ? 		O 		-0.72725
O 1.0  		0.7842981259932998 		0.5979487682795172  -0.06618433184937125 		Uiso   ? 		O 		-0.72725
O 1.0  		0.26400477960866137 		0.32019825301796057  -0.007495234162428795 		Uiso   ? 		O 		-0.58355
O 1.0  		0.2643173063752229 		0.8197566002551773  -0.007636653674927452 		Uiso   ? 		O 		-0.58355
O 1.0  		0.7607716120237104 		0.31332809893021885  -0.004666843912455665 		Uiso   ? 		O 		-0.58355
O 1.0  		0.763226635759263 		0.8163215232113064  -0.005515360987447604 		Uiso   ? 		O 		-0.58355
O 1.0  		0.36443884141081795 		0.1398567082147414  -0.005939619524943574 		Uiso   ? 		O 		-0.92578
O 1.0  		0.36463748604134655 		0.6408872313279027  -0.0069295561124341695 		Uiso   ? 		O 		-0.92578
O 1.0  		0.866316556730583 		0.14108352144469527  -0.00608103903744223 		Uiso   ? 		O 		-0.92578
O 1.0  		0.8645611228418657 		0.6399057807439397  -0.006222458549940886 		Uiso   ? 		O 		-0.92578
O 1.0  		0.28333468149578206 		0.09961723427225441  0.08739725872416973 		Uiso   ? 		O 		-0.55543
O 1.0  		0.28277317585044115 		0.6004023947394249  0.08612448311168182 		Uiso   ? 		O 		-0.55543
O 1.0  		0.7826625147475926 		0.10084404750220827  0.08725583921167107 		Uiso   ? 		O 		-0.55543
O 1.0  		0.7822959040288855 		0.598194130925508  0.08711441969917241 		Uiso   ? 		O 		-0.55543
O 1.0  		0.2982733850257335 		0.14181960938266758  -0.005091102449951634 		Uiso   ? 		O 		-0.92578
O 1.0  		0.2967304413093457 		0.640641868681912  -0.005515360987447604 		Uiso   ? 		O 		-0.92578
O 1.0  		0.7991696622744515 		0.14108352144469527  -0.006363878062439543 		Uiso   ? 		O 		-0.92578
O 1.0  		0.7978063393849611 		0.639415055451958  -0.005232521962450291 		Uiso   ? 		O 		-0.92578
O 1.0  		0.2974307610762942 		0.07213661792128767  -0.005091102449951634 		Uiso   ? 		O 		-0.92578
O 1.0  		0.2979076345700166 		0.574148591618412  -0.005656780499946261 		Uiso   ? 		O 		-0.92578
O 1.0  		0.7972733850862126 		0.07311806850525077  -0.0053739414749489475 		Uiso   ? 		O 		-0.92578
O 1.0  		0.7971850032306993 		0.5714496025125135  -0.005091102449951634 		Uiso   ? 		O 		-0.92578
O 1.0  		0.1757931310383931 		0.3324663853174993  -0.0053739414749489475 		Uiso   ? 		O 		-0.92578
O 1.0  		0.17634221969986846 		0.8307979193247621  -0.005798200012444917 		Uiso   ? 		O 		-0.92578
O 1.0  		0.6738437021102672 		0.3273137697516931  -0.005091102449951634 		Uiso   ? 		O 		-0.92578
O 1.0  		0.6762001178095232 		0.8288350181568359  -0.007070975624932826 		Uiso   ? 		O 		-0.92578
O 1.0  		0.17920910815839236 		0.2645009323780548  -0.00608103903744223 		Uiso   ? 		O 		-0.92578
O 1.0  		0.17767496206485245 		0.7650407301992345  -0.006788136599935513 		Uiso   ? 		O 		-0.92578
O 1.0  		0.6733450457148862 		0.2595936794582393  -0.005515360987447604 		Uiso   ? 		O 		-0.92578
O 1.0  		0.6769852000709673 		0.7628324663853175  -0.0065052975749382 		Uiso   ? 		O 		-0.92578
O 1.0  		0.1100511941149986 		0.26302875650211016  -0.005232521962450291 		Uiso   ? 		O 		-0.92578
O 1.0  		0.10877120516206829 		0.7657768181372069  -0.00608103903744223 		Uiso   ? 		O 		-0.92578
O 1.0  		0.6077031777107573 		0.26302875650211016  -0.005515360987447604 		Uiso   ? 		O 		-0.92578
O 1.0  		0.6103618939957915 		0.7643046422612623  -0.005515360987447604 		Uiso   ? 		O 		-0.92578
O 1.0  		0.1442969290494438 		0.35872018843851217  0.1063474733989897 		Uiso   ? 		O 		-0.58306
O 1.0  		0.14147024667623093 		0.8558249092158211  0.1063474733989897 		Uiso   ? 		O 		-0.58306
O 1.0  		0.6419072456769224 		0.3565119246245952  0.10663031242398702 		Uiso   ? 		O 		-0.58306
O 1.0  		0.6435933215137577 		0.8575424477377565  0.1063474733989897 		Uiso   ? 		O 		-0.58306
O 1.0  		0.39144635691230345 		0.10845028952792228  0.10747882949897895 		Uiso   ? 		O 		-0.58306
O 1.0  		0.3922408050915405 		0.6072725488271666  0.10677173193648568 		Uiso   ? 		O 		-0.58306
O 1.0  		0.8928574249191292 		0.10746883894395919  0.10648889291148836 		Uiso   ? 		O 		-0.58306
O 1.0  		0.8933167031671561 		0.6060457355972128  0.1086101855989682 		Uiso   ? 		O 		-0.58306
O 1.0  		0.24097594811247336 		0.05569732063990579  -0.04624418058706068 		Uiso   ? 		O 		-0.56223
O 1.0  		0.24375502301042912 		0.5508391402492885  -0.046951278149553966 		Uiso   ? 		O 		-0.56223
O 1.0  		0.7414296497708367 		0.051526155658062615  -0.04808263424954322 		Uiso   ? 		O 		-0.56223
O 1.0  		0.7458035615342435 		0.5498576896653254  -0.04680985863705531 		Uiso   ? 		O 		-0.56223
O 1.0  		0.3374627343717957 		0.10035332221022672  -0.065052975749382 		Uiso   ? 		O 		-0.72731
O 1.0  		0.3384937444459465 		0.5979487682795172  -0.06576007331187528 		Uiso   ? 		O 		-0.72731
O 1.0  		0.8348605608269447 		0.09814505839630976  -0.06646717087436856 		Uiso   ? 		O 		-0.72731
O 1.0  		0.8346319039668548 		0.5927961527137109  -0.06646717087436856 		Uiso   ? 		O 		-0.72731
O 1.0  		0.17317848420155374 		0.3790852880557464  0.011596400024889835 		Uiso   ? 		O 		-0.60243
O 1.0  		0.17486456003838907 		0.8801158111689078  0.011454980512391178 		Uiso   ? 		O 		-0.60243
O 1.0  		0.674221512931737 		0.377367749533811  0.013293434174873713 		Uiso   ? 		O 		-0.60243
O 1.0  		0.6753599286650324 		0.8781529100009816  0.009616526849908644 		Uiso   ? 		O 		-0.60243
O 1.0  		0.14538345163367575 		0.3574933752085583  0.03733475129964532 		Uiso   ? 		O 		-0.58477
O 1.0  		0.14272111598762383 		0.8570517224457749  0.03634481471215473 		Uiso   ? 		O 		-0.58477
O 1.0  		0.6410484873647564 		0.35479438610265973  0.036910492762149354 		Uiso   ? 		O 		-0.58477
O 1.0  		0.6428331712378883 		0.8572970850917657  0.03436494153717353 		Uiso   ? 		O 		-0.58477
O 1.0  		0.3409940545107969 		0.10231622337815291  0.08753867823666839 		Uiso   ? 		O 		-0.55543
O 1.0  		0.33847847034621015 		0.6008931200314064  0.08697300018667375 		Uiso   ? 		O 		-0.55543
O 1.0  		0.838972410414918 		0.10084404750220827  0.08626590262418048 		Uiso   ? 		O 		-0.55543
O 1.0  		0.840583949938041 		0.599175581509471  0.0865487416491778 		Uiso   ? 		O 		-0.55543
O 1.0  		0.23630531965215282 		0.04465600157032094  0.10875160511146686 		Uiso   ? 		O 		-0.58306
O 1.0  		0.23754234342174474 		0.5469133379134361  0.10719599047398164 		Uiso   ? 		O 		-0.58306
O 1.0  		0.7370307736968215 		0.046128177446265586  0.10606463437399238 		Uiso   ? 		O 		-0.58306
O 1.0  		0.7378909605669229 		0.5459318873294731  0.10719599047398164 		Uiso   ? 		O 		-0.58306
O 1.0  		0.4145536527351548 		0.13936598292275984  0.010182204899903268 		Uiso   ? 		O 		-0.60244
O 1.0  		0.41345328460912195 		0.641623319265875  0.010889302462396552 		Uiso   ? 		O 		-0.60244
O 1.0  		0.9165452501909528 		0.13912062027676905  0.010323624412401925 		Uiso   ? 		O 		-0.60244
O 1.0  		0.9146101954753381 		0.6384336048679949  0.0097579463624073 		Uiso   ? 		O 		-0.60244
O 1.0  		0.3922963176016216 		0.10845028952792228  0.034789200074669506 		Uiso   ? 		O 		-0.58477
O 1.0  		0.39163620391998416 		0.6077632741191481  0.034789200074669506 		Uiso   ? 		O 		-0.58477
O 1.0  		0.8930458433688746 		0.10869565217391305  0.03450636104967219 		Uiso   ? 		O 		-0.58477
O 1.0  		0.8929662591362091 		0.6087447247031113  0.03464778056217085 		Uiso   ? 		O 		-0.58477
O 1.0  		0.23399185349508966 		0.3574933752085583  0.10705457096148298 		Uiso   ? 		O 		-0.59953
O 1.0  		0.23634826919434568 		0.8590146236137011  0.10663031242398702 		Uiso   ? 		O 		-0.59953
O 1.0  		0.7352145030521703 		0.3552851113946413  0.10648889291148836 		Uiso   ? 		O 		-0.59953
O 1.0  		0.7352006575103692 		0.8563156345078027  0.10521611729900045 		Uiso   ? 		O 		-0.59953
O 1.0  		0.39345052672067665 		0.20340563352635196  0.10875160511146686 		Uiso   ? 		O 		-0.59953
O 1.0  		0.3919973934177376 		0.7019825301796055  0.10747882949897895 		Uiso   ? 		O 		-0.59953
O 1.0  		0.8921561635552351 		0.20168809500441653  0.10606463437399238 		Uiso   ? 		O 		-0.59953
O 1.0  		0.8932769840428347 		0.6990381784277163  0.10606463437399238 		Uiso   ? 		O 		-0.59953
O 1.0  		0.22795280521740383 		0.38153891451565414  0.010747882949897895 		Uiso   ? 		O 		-0.59987
O 1.0  		0.22671216208679432 		0.8801158111689078  0.011879239049887148 		Uiso   ? 		O 		-0.59987
O 1.0  		0.7237229254616695 		0.37565021101187557  0.01216207807488446 		Uiso   ? 		O 		-0.59987
O 1.0  		0.7248701388178127 		0.8781529100009816  0.010323624412401925 		Uiso   ? 		O 		-0.59987
O 1.0  		0.236272304322698 		0.3582294631465306  0.035496297637162784 		Uiso   ? 		O 		-0.60206
O 1.0  		0.2350316611920884 		0.8568063597997841  0.03620339519965607 		Uiso   ? 		O 		-0.60206
O 1.0  		0.7350348822252729 		0.3557758366866228  0.03620339519965607 		Uiso   ? 		O 		-0.60206
O 1.0  		0.7373014875110804 		0.8575424477377565  0.03493061958716816 		Uiso   ? 		O 		-0.60206
O 1.0  		0.41185799310771465 		0.18794778682893318  0.011879239049887148 		Uiso   ? 		O 		-0.59988
O 1.0  		0.4145343046384447 		0.6926587496319561  0.009899365874905957 		Uiso   ? 		O 		-0.59988
O 1.0  		0.9168508458446698 		0.19285503974874868  0.010182204899903268 		Uiso   ? 		O 		-0.59988
O 1.0  		0.9135334444359333 		0.6889783099420944  0.011030721974895208 		Uiso   ? 		O 		-0.59988
O 1.0  		0.336002669956012 		0.15310629109824322  -0.06561865379937663 		Uiso   ? 		O 		-0.72750
O 1.0  		0.33698553658499425 		0.6531553636274414  -0.06618433184937125 		Uiso   ? 		O 		-0.72750
O 1.0  		0.8348309865494513 		0.15163411522229855  -0.06703284892436319 		Uiso   ? 		O 		-0.72750
O 1.0  		0.8412487872455527 		0.6519285503974875  -0.06561865379937663 		Uiso   ? 		O 		-0.72750
O 1.0  		0.38260925894195247 		0.10182549808617136  -0.04864831229953784 		Uiso   ? 		O 		-0.56232
O 1.0  		0.3853272374409626 		0.6087447247031113  -0.04822405376204188 		Uiso   ? 		O 		-0.56232
O 1.0  		0.8836874781635273 		0.10697811365197764  -0.049213990349532465 		Uiso   ? 		O 		-0.56232
O 1.0  		0.8839013968937924 		0.6050642850132497  -0.048365473274540535 		Uiso   ? 		O 		-0.56232
O 1.0  		0.39130802975168555 		0.1999705564824811  0.03606197568715741 		Uiso   ? 		O 		-0.60207
O 1.0  		0.3932482627291305 		0.7032093434095594  0.03365784397468025 		Uiso   ? 		O 		-0.60207
O 1.0  		0.8925394769316141 		0.19947983119049956  0.035072039099666816 		Uiso   ? 		O 		-0.60207
O 1.0  		0.8910622719060907 		0.699283541073707  0.03535487812466413 		Uiso   ? 		O 		-0.60207
O 1.0  		0.33488193080236783 		0.19506330356266566  -0.04610276107456203 		Uiso   ? 		O 		-0.56232
O 1.0  		0.32769156284653134 		0.6936402002159192  -0.04808263424954322 		Uiso   ? 		O 		-0.56232
O 1.0  		0.8330070381879542 		0.1926096771027579  -0.04992108791202575 		Uiso   ? 		O 		-0.56232
O 1.0  		0.8296414933340492 		0.6911865737560114  -0.04808263424954322 		Uiso   ? 		O 		-0.56232
O 1.0  		0.3322774288123564 		0.20217882029639808  0.10804450754897359 		Uiso   ? 		O 		-0.58306
O 1.0  		0.331069655027179 		0.7012464422416332  0.10663031242398702 		Uiso   ? 		O 		-0.58306
O 1.0  		0.8312941638555409 		0.2019334576504073  0.1063474733989897 		Uiso   ? 		O 		-0.58306
O 1.0  		0.8312057820000276 		0.7002649916576701  0.1063474733989897 		Uiso   ? 		O 		-0.58306
O 1.0  		0.2375890583089779 		0.04637354009225636  0.03719333178714666 		Uiso   ? 		O 		-0.58478
O 1.0  		0.23833536304304637 		0.5476494258514085  0.035213458612165474 		Uiso   ? 		O 		-0.58478
O 1.0  		0.7390417932840838 		0.04760035332221023  0.034789200074669506 		Uiso   ? 		O 		-0.58478
O 1.0  		0.736215110910871 		0.5447050740995192  0.036486234224653386 		Uiso   ? 		O 		-0.58478
O 1.0  		0.40910112342233995 		0.13568554323289825  -0.025738351274755485 		Uiso   ? 		O 		-0.56720
O 1.0  		0.4111311668132335 		0.6386789675139858  -0.02404131712477161 		Uiso   ? 		O 		-0.56720
O 1.0  		0.9097696363989921 		0.13789380704681523  -0.0260211902997528 		Uiso   ? 		O 		-0.56720
O 1.0  		0.911348306576683 		0.6357346157620964  -0.02517267322476086 		Uiso   ? 		O 		-0.56720
O 1.0  		0.32740542894851365 		0.19923446854450882  0.03535487812466413 		Uiso   ? 		O 		-0.58478
O 1.0  		0.33064467468251996 		0.7012464422416332  0.035072039099666816 		Uiso   ? 		O 		-0.58478
O 1.0  		0.8321769938902912 		0.20242418294238887  0.03394068299967756 		Uiso   ? 		O 		-0.58478
O 1.0  		0.8286142329637933 		0.6980567278437532  0.03535487812466413 		Uiso   ? 		O 		-0.58478
O 1.0  		0.3380794282341387 		0.15555991755815096  0.08768009774916705 		Uiso   ? 		O 		-0.55543
O 1.0  		0.3381794648283707 		0.6551182647953676  0.08612448311168182 		Uiso   ? 		O 		-0.55543
O 1.0  		0.839711784036142 		0.1562960054961233  0.0868315806741751 		Uiso   ? 		O 		-0.55543
O 1.0  		0.8397044149712295 		0.6526646383354598  0.0865487416491778 		Uiso   ? 		O 		-0.55543
O 1.0  		0.0823649144302451 		0.20340563352635196  0.03450636104967219 		Uiso   ? 		O 		-0.58478
O 1.0  		0.08239921233361269 		0.7019825301796055  0.03295074641218697 		Uiso   ? 		O 		-0.58478
O 1.0  		0.5801877212300532 		0.201197369712435  0.035072039099666816 		Uiso   ? 		O 		-0.58478
O 1.0  		0.5809099542415374 		0.7037000687015409  0.03535487812466413 		Uiso   ? 		O 		-0.58478
O 1.0  		0.3002108422212629 		0.18819314947492397  -0.02517267322476086 		Uiso   ? 		O 		-0.56721
O 1.0  		0.29651012743614763 		0.6865246834821868  -0.024182736637270268 		Uiso   ? 		O 		-0.56721
O 1.0  		0.801271466197142 		0.18991068799685937  -0.026586868349747425 		Uiso   ? 		O 		-0.56721
O 1.0  		0.8001206334799811 		0.6882422220041222  -0.024182736637270268 		Uiso   ? 		O 		-0.56721
O 1.0  		0.23787679907398743 		0.2981156148787909  0.03450636104967219 		Uiso   ? 		O 		-0.58477
O 1.0  		0.2348945675964615 		0.7944842477181274  0.035072039099666816 		Uiso   ? 		O 		-0.58477
O 1.0  		0.733769599077134 		0.29247227402100306  0.035496297637162784 		Uiso   ? 		O 		-0.58477
O 1.0  		0.7367963546388108 		0.7944842477181274  0.036769073249650695 		Uiso   ? 		O 		-0.58477
O 1.0  		0.08736839167581664 		0.20831288644616744  -0.04963824888702843 		Uiso   ? 		O 		-0.56235
O 1.0  		0.08993729754740215 		0.7098341348513102  -0.04779979522454591 		Uiso   ? 		O 		-0.56235
O 1.0  		0.5840083890010557 		0.21223868878201985  -0.048789731812036496 		Uiso   ? 		O 		-0.56235
O 1.0  		0.5936945550727007 		0.7105702227892826  -0.04808263424954322 		Uiso   ? 		O 		-0.56235
O 1.0  		0.0820626138444669 		0.20365099617234272  0.10578179534899508 		Uiso   ? 		O 		-0.58306
O 1.0  		0.08072336267756075 		0.7007557169496517  0.1073374099864803 		Uiso   ? 		O 		-0.58306
O 1.0  		0.5804002114023827 		0.201197369712435  0.10691315144898433 		Uiso   ? 		O 		-0.58306
O 1.0  		0.5821848952755145 		0.7037000687015409  0.10776166852397627 		Uiso   ? 		O 		-0.58306
O 1.0  		0.13856384972747562 		0.34767886936892733  -0.04610276107456203 		Uiso   ? 		O 		-0.56222
O 1.0  		0.14607929177661622 		0.854843458631858  -0.04779979522454591 		Uiso   ? 		O 		-0.56222
O 1.0  		0.646923675876271 		0.35209539699676123  -0.047375536687049934 		Uiso   ? 		O 		-0.56222
O 1.0  		0.6432470328137398 		0.8492001177740701  -0.048365473274540535 		Uiso   ? 		O 		-0.56222
O 1.0  		0.2294845978399507 		0.3013053292766709  -0.049072570837033806 		Uiso   ? 		O 		-0.56227
O 1.0  		0.23220025519300136 		0.8018451270978506  -0.04935540986203112 		Uiso   ? 		O 		-0.56227
O 1.0  		0.7298308938391694 		0.2939444498969477  -0.04596134156206337 		Uiso   ? 		O 		-0.56227
O 1.0  		0.7321873095384255 		0.7954656983020906  -0.047375536687049934 		Uiso   ? 		O 		-0.56227
O 1.0  		0.23442649172558694 		0.2941898125429385  0.1063474733989897 		Uiso   ? 		O 		-0.58306
O 1.0  		0.23569638484061103 		0.7969378741780353  0.1073374099864803 		Uiso   ? 		O 		-0.58306
O 1.0  		0.733769599077134 		0.29247227402100306  0.1073374099864803 		Uiso   ? 		O 		-0.58306
O 1.0  		0.7345159038112024 		0.7937481597801551  0.1063474733989897 		Uiso   ? 		O 		-0.58306
O 1.0  		0.2603329571471054 		0.08931200314064187  0.010182204899903268 		Uiso   ? 		O 		-1.13516
O 1.0  		0.25936174525684186 		0.587152811855923  0.009050848799914017 		Uiso   ? 		O 		-1.13516
O 1.0  		0.7587691627413179 		0.08833055255667878  0.008343751237420734 		Uiso   ? 		O 		-1.13516
O 1.0  		0.759129832953048 		0.5854352733339877  0.009050848799914017 		Uiso   ? 		O 		-1.13516
O 1.0  		0.348016862005489 		0.08661301403474335  0.009616526849908644 		Uiso   ? 		O 		-1.13516
O 1.0  		0.34985848694663724 		0.588379625085877  0.007636653674927452 		Uiso   ? 		O 		-1.13516
O 1.0  		0.8511695183592312 		0.08783982726469723  0.008060912212423423 		Uiso   ? 		O 		-1.13516
O 1.0  		0.8503955225415607 		0.5886249877318678  0.009192268312412674 		Uiso   ? 		O 		-1.13516
O 1.0  		0.3510330180843818 		0.17764255569732065  0.009192268312412674 		Uiso   ? 		O 		-1.13516
O 1.0  		0.3502349505441271 		0.679654529394445  0.008060912212423423 		Uiso   ? 		O 		-1.13516
O 1.0  		0.8523390015780226 		0.17985081951123763  0.007919492699924766 		Uiso   ? 		O 		-1.13516
O 1.0  		0.8497905480680037 		0.6779369908725096  0.00890942928741536 		Uiso   ? 		O 		-1.13516
O 1.0  		0.2832032041140533 		0.09765433310432821  0.05642638548696395 		Uiso   ? 		O 		-0.55402
O 1.0  		0.2832638948859646 		0.6013838453233881  0.05501219036197739 		Uiso   ? 		O 		-0.55402
O 1.0  		0.7827194558156092 		0.10010795956423595  0.0562849659744653 		Uiso   ? 		O 		-0.55402
O 1.0  		0.783367152513381 		0.5999116694474433  0.05614354646196664 		Uiso   ? 		O 		-0.55402
O 1.0  		0.25905801611312823 		0.08931200314064187  -0.019374473212315946 		Uiso   ? 		O 		-1.12612
O 1.0  		0.25978672560150096 		0.587152811855923  -0.020930087849801163 		Uiso   ? 		O 		-1.12612
O 1.0  		0.7606815742922837 		0.08833055255667878  -0.021354346387297135 		Uiso   ? 		O 		-1.12612
O 1.0  		0.7610181727814294 		0.5866620865639416  -0.020930087849801163 		Uiso   ? 		O 		-1.12612
O 1.0  		0.34807380307350544 		0.08587692609677103  -0.020081570774809224 		Uiso   ? 		O 		-1.12612
O 1.0  		0.35160007529355364 		0.590587888899794  -0.021354346387297135 		Uiso   ? 		O 		-1.12612
O 1.0  		0.8492001657402488 		0.08857591520266955  -0.021212926874798477 		Uiso   ? 		O 		-1.12612
O 1.0  		0.8494140844705138 		0.5866620865639416  -0.020364409799806537 		Uiso   ? 		O 		-1.12612
O 1.0  		0.12239419327778647 		0.3140641868681912  -0.0195158927248146 		Uiso   ? 		O 		-1.12612
O 1.0  		0.1250617071856686 		0.8170576111492788  -0.021071507362299822 		Uiso   ? 		O 		-1.12612
O 1.0  		0.6230057651864221 		0.3170085386200805  -0.01965731223731326 		Uiso   ? 		O 		-1.12612
O 1.0  		0.6255811475348962 		0.8138678967513987  -0.021778604924793103 		Uiso   ? 		O 		-1.12612
O 1.0  		0.3497821487729889 		0.17641574246736677  -0.02022299028730788 		Uiso   ? 		O 		-1.12613
O 1.0  		0.34947480026825767 		0.6794091667484543  -0.021778604924793103 		Uiso   ? 		O 		-1.12613
O 1.0  		0.8506302825765384 		0.1781332809893022  -0.022202863462289075 		Uiso   ? 		O 		-1.12613
O 1.0  		0.8499701688949011 		0.6774462655805281  -0.020930087849801163 		Uiso   ? 		O 		-1.12613
O 1.0  		0.12483056651170854 		0.22671508489547554  -0.02149576589979579 		Uiso   ? 		O 		-1.12614
O 1.0  		0.1257652896955222 		0.7292177838845815  -0.021778604924793103 		Uiso   ? 		O 		-1.12614
O 1.0  		0.6212316807960743 		0.22548827166552166  -0.020505829312305192 		Uiso   ? 		O 		-1.12614
O 1.0  		0.6263175993901821 		0.7265187947786829  -0.02149576589979579 		Uiso   ? 		O 		-1.12614
O 1.0  		0.34078156433846735 		0.10231622337815291  0.0562849659744653 		Uiso   ? 		O 		-0.55402
O 1.0  		0.3397534113801873 		0.6008931200314064  0.055577868411972015 		Uiso   ? 		O 		-0.55402
O 1.0  		0.84174358027805 		0.10256158602414368  0.05487077084947873 		Uiso   ? 		O 		-0.55402
O 1.0  		0.8398566690076038 		0.5994209441554619  0.0552950293869747 		Uiso   ? 		O 		-0.55402
O 1.0  		0.33768731723491185 		0.1560506428501325  0.05642638548696395 		Uiso   ? 		O 		-0.55402
O 1.0  		0.33921784396743404 		0.6563450780253214  0.05487077084947873 		Uiso   ? 		O 		-0.55402
O 1.0  		0.8387720129333752 		0.15654136814211406  0.05600212694946798 		Uiso   ? 		O 		-0.55402
O 1.0  		0.8386178923869975 		0.6538914515654137  0.05600212694946798 		Uiso   ? 		O 		-0.55402
O 1.0  		0.136721705500304 		0.24879772303464523  0.055577868411972015 		Uiso   ? 		O 		-0.55402
O 1.0  		0.1329223826788922 		0.7456570811659634  0.05501219036197739 		Uiso   ? 		O 		-0.55402
O 1.0  		0.6363342440921971 		0.2463440965747375  0.05656780499946261 		Uiso   ? 		O 		-0.55402
O 1.0  		0.6338033858278739 		0.7478653449798803  0.05444651231198276 		Uiso   ? 		O 		-0.55402
O 1.0  		0.13548292887969776 		0.3032682304445971  0.057133483049457236 		Uiso   ? 		O 		-0.55402
O 1.0  		0.1359510047505723 		0.8035626656197861  0.05642638548696395 		Uiso   ? 		O 		-0.55402
O 1.0  		0.6317766375049191 		0.2988517028167632  0.055860707436969324 		Uiso   ? 		O 		-0.55402
O 1.0  		0.6336599294143475 		0.8028265776818138  0.05501219036197739 		Uiso   ? 		O 		-0.55402
O 1.0  		0.3002043657443744 		0.19285503974874868  0.010606463437399238 		Uiso   ? 		O 		-0.60243
O 1.0  		0.29683002326762165 		0.6897143978800668  0.011313560999892521 		Uiso   ? 		O 		-0.60243
O 1.0  		0.7983952118208251 		0.19138286387280404  0.010323624412401925 		Uiso   ? 		O 		-0.60243
O 1.0  		0.7955926011701965 		0.6872607714201591  0.011596400024889835 		Uiso   ? 		O 		-0.60243
O 1.0  		0.19212799447823353 		0.30351359309058795  0.055436448899473356 		Uiso   ? 		O 		-0.55402
O 1.0  		0.18927724038243637 		0.8018451270978506  0.055860707436969324 		Uiso   ? 		O 		-0.55402
O 1.0  		0.6876222070052648 		0.3030228677986064  0.0562849659744653 		Uiso   ? 		O 		-0.55402
O 1.0  		0.6907147012578059 		0.8060162920796939  0.055860707436969324 		Uiso   ? 		O 		-0.55402
O 1.0  		0.13467134009072096 		0.2514967121405437  -0.06703284892436319 		Uiso   ? 		O 		-0.72747
O 1.0  		0.13289183447941938 		0.751545784669742  -0.06646717087436856 		Uiso   ? 		O 		-0.72747
O 1.0  		0.6357472381663365 		0.25026989891058987  -0.06491155623688334 		Uiso   ? 		O 		-0.72747
O 1.0  		0.6358384771377206 		0.7481107076258711  -0.06759852697435781 		Uiso   ? 		O 		-0.72747
O 1.0  		0.13383665350113927 		0.24855236038865441  0.08612448311168182 		Uiso   ? 		O 		-0.55543
O 1.0  		0.1339607618179555 		0.7468838943959173  0.08640732213667913 		Uiso   ? 		O 		-0.55543
O 1.0  		0.6321085123681907 		0.2451172833447836  0.08753867823666839 		Uiso   ? 		O 		-0.55543
O 1.0  		0.6339589349321869 		0.7486014329178526  0.08598306359918316 		Uiso   ? 		O 		-0.55543
O 1.0  		0.13281916467571045 		0.3047404063205418  -0.06434587818688872 		Uiso   ? 		O 		-0.72716
O 1.0  		0.1386499594459512 		0.8089606438315832  -0.0660429123368726 		Uiso   ? 		O 		-0.72716
O 1.0  		0.6349246442675414 		0.3030228677986064  -0.06576007331187528 		Uiso   ? 		O 		-0.72716
O 1.0  		0.6404684125517404 		0.8045441162037492  -0.0663257513618699 		Uiso   ? 		O 		-0.72716
O 1.0  		0.13545885715711348 		0.30449504367455105  0.08725583921167107 		Uiso   ? 		O 		-0.55543
O 1.0  		0.13799489368326678 		0.8055255667877123  0.08711441969917241 		Uiso   ? 		O 		-0.55543
O 1.0  		0.6340658859553754 		0.3013053292766709  0.08669016116167644 		Uiso   ? 		O 		-0.55543
O 1.0  		0.6320169491037277 		0.8020904897438415  0.0865487416491778 		Uiso   ? 		O 		-0.55543
O 1.0  		0.18795040619939582 		0.2998331534007263  -0.06646717087436856 		Uiso   ? 		O 		-0.72713
O 1.0  		0.19249978345877092 		0.8087152811855923  -0.06689142941186453 		Uiso   ? 		O 		-0.72713
O 1.0  		0.6931228797632482 		0.30424968102856026  -0.06590149282437394 		Uiso   ? 		O 		-0.72713
O 1.0  		0.6957311314571544 		0.8015997644518599  -0.06717426843686185 		Uiso   ? 		O 		-0.72713
O 1.0  		0.19016743948209922 		0.30596721955049566  0.08598306359918316 		Uiso   ? 		O 		-0.55543
O 1.0  		0.19107576979736918 		0.8033173029737953  0.0868315806741751 		Uiso   ? 		O 		-0.55543
O 1.0  		0.6879967227587958 		0.299097065462754  0.0865487416491778 		Uiso   ? 		O 		-0.55543
O 1.0  		0.6919151059780708 		0.8033173029737953  0.0868315806741751 		Uiso   ? 		O 		-0.55543
O 1.0  		0.3004824809485793 		0.08121503582294633  0.027718224449736678 		Uiso   ? 		O 		-0.98153
O 1.0  		0.3023241058897276 		0.5829816468740799  0.02644544883724877 		Uiso   ? 		O 		-0.98153
O 1.0  		0.8031444182667979 		0.0814603984689371  0.026304029324750112 		Uiso   ? 		O 		-0.98153
O 1.0  		0.8012181611740313 		0.5824909215820984  0.02644544883724877 		Uiso   ? 		O 		-0.98153
O 1.0  		0.21351313138483405 		0.3182353518500344  -0.02149576589979579 		Uiso   ? 		O 		-1.12611
O 1.0  		0.2152561482896858 		0.8185297870252233  -0.021071507362299822 		Uiso   ? 		O 		-1.12611
O 1.0  		0.7107706828354065 		0.31234664834625575  -0.02022299028730788 		Uiso   ? 		O 		-1.12611
O 1.0  		0.7154973597757195 		0.8143586220433802  -0.020788668337302505 		Uiso   ? 		O 		-1.12611
O 1.0  		0.3557091490996115 		0.13642163117087058  0.02686970737474474 		Uiso   ? 		O 		-0.98153
O 1.0  		0.3573711532138625 		0.6386789675139858  0.025738351274755485 		Uiso   ? 		O 		-0.98153
O 1.0  		0.8573984459696312 		0.13642163117087058  0.026162609812251457 		Uiso   ? 		O 		-0.98153
O 1.0  		0.8572859923915337 		0.6359799784080872  0.02686970737474474 		Uiso   ? 		O 		-0.98153
O 1.0  		0.3024879979809325 		0.1349494552949259  0.02729396591224071 		Uiso   ? 		O 		-0.98153
O 1.0  		0.3024500807165472 		0.6372067916380411  0.025455512249758172 		Uiso   ? 		O 		-0.98153
O 1.0  		0.8028301386492221 		0.1386298949847875  0.02644544883724877 		Uiso   ? 		O 		-0.98153
O 1.0  		0.801604769618349 		0.6342624398861518  0.026304029324750112 		Uiso   ? 		O 		-0.98153
O 1.0  		0.3001561086402168 		0.08268721169889097  -0.03606197568715741 		Uiso   ? 		O 		-0.91718
O 1.0  		0.30292870706128405 		0.5824909215820984  -0.03761759032464264 		Uiso   ? 		O 		-0.91718
O 1.0  		0.8022791834777435 		0.08440475022082639  -0.03790042934963995 		Uiso   ? 		O 		-0.91718
O 1.0  		0.8046268015541516 		0.5842084601040337  -0.03662765373715204 		Uiso   ? 		O 		-0.91718
O 1.0  		0.3550540833369271 		0.13298655412699972  -0.036769073249650695 		Uiso   ? 		O 		-0.91726
O 1.0  		0.35334911403933783 		0.6357346157620964  -0.038466107399634575 		Uiso   ? 		O 		-0.91726
O 1.0  		0.8524037663469076 		0.1332319167729905  -0.03761759032464264 		Uiso   ? 		O 		-0.91726
O 1.0  		0.8556999531489304 		0.6345078025321426  -0.03775900983714129 		Uiso   ? 		O 		-0.91726
Ti 1.0  		0.34385919011830646 		0.09274708018451272  0.4221372448084897 		Uiso   ? 		Ti 		2.08366
Ti 1.0  		0.3447851156792722 		0.5935322406516832  0.4218544057834924 		Uiso   ? 		Ti 		2.08366
Ti 1.0  		0.8469877747494643 		0.09520070664442046  0.4214301472459964 		Uiso   ? 		Ti 		2.08366
Ti 1.0  		0.8430088311011552 		0.5925507900677202  0.4214301472459964 		Uiso   ? 		Ti 		2.08366
Ti 1.0  		0.34262737693557843 		0.16635587398174503  0.42157156675849505 		Uiso   ? 		Ti 		2.08326
Ti 1.0  		0.3443134527724137 		0.6673863970949063  0.4214301472459964 		Uiso   ? 		Ti 		2.08326
Ti 1.0  		0.8465730529106221 		0.16831877514967125  0.4214301472459964 		Uiso   ? 		Ti 		2.08326
Ti 1.0  		0.8420705208813574 		0.6641966826970263  0.42157156675849505 		Uiso   ? 		Ti 		2.08326
Ti 1.0  		0.13149461931359563 		0.23579350279713418  0.42171298627099374 		Uiso   ? 		Ti 		2.08289
Ti 1.0  		0.12898783277185677 		0.7360879379723232  0.4210058887085004 		Uiso   ? 		Ti 		2.08289
Ti 1.0  		0.6287456942872796 		0.2345666895671803  0.42157156675849505 		Uiso   ? 		Ti 		2.08289
Ti 1.0  		0.6284952868505647 		0.7368240259102955  0.42072304968350316 		Uiso   ? 		Ti 		2.08289
Ti 1.0  		0.13044242695776492 		0.30891157130238495  0.42058163017100453 		Uiso   ? 		Ti 		2.08337
Ti 1.0  		0.1275435294167992 		0.8096967317695555  0.4214301472459964 		Uiso   ? 		Ti 		2.08337
Ti 1.0  		0.6275379528271358 		0.3069486701344587  0.4204402106585058 		Uiso   ? 		Ti 		2.08337
Ti 1.0  		0.6282930551840522 		0.8099420944155463  0.42157156675849505 		Uiso   ? 		Ti 		2.08337
Ti 1.0  		0.20466723579163515 		0.30989302188634804  0.42199582529599106 		Uiso   ? 		Ti 		2.08397
Ti 1.0  		0.20184935104127022 		0.8087152811855923  0.42171298627099374 		Uiso   ? 		Ti 		2.08397
Ti 1.0  		0.7026784610411886 		0.30891157130238495  0.4212887277334978 		Uiso   ? 		Ti 		2.08397
Ti 1.0  		0.702607674431371 		0.8106781823535185  0.42072304968350316 		Uiso   ? 		Ti 		2.08397
Ti 1.0  		0.2738207671861218 		0.09716360781234666  0.4941197766703059 		Uiso   ? 		Ti 		2.08144
Ti 1.0  		0.27868539798505204 		0.5964765924035725  0.4952511327702951 		Uiso   ? 		Ti 		2.08144
Ti 1.0  		0.7731222075693887 		0.09323780547649427  0.4944026156953032 		Uiso   ? 		Ti 		2.08144
Ti 1.0  		0.7715792638530009 		0.5920600647757386  0.4935540986203113 		Uiso   ? 		Ti 		2.08144
Ti 1.0  		0.12892946314590487 		0.23873785454902346  0.49341267910781256 		Uiso   ? 		Ti 		2.08383
Ti 1.0  		0.13042712053299482 		0.7385415644322308  0.49256416203282066 		Uiso   ? 		Ti 		2.08383
Ti 1.0  		0.6311270742971439 		0.24315438217685742  0.4946854547203005 		Uiso   ? 		Ti 		2.08383
Ti 1.0  		0.6315775549223226 		0.7400137403081756  0.4932712595953139 		Uiso   ? 		Ti 		2.08383
Ti 1.0  		0.12939525019585368 		0.30596721955049566  0.4935540986203113 		Uiso   ? 		Ti 		2.08184
Ti 1.0  		0.13180860696312613 		0.8067523800176661  0.49369551813280993 		Uiso   ? 		Ti 		2.08184
Ti 1.0  		0.6296147111052625 		0.30940229659436647  0.49256416203282066 		Uiso   ? 		Ti 		2.08184
Ti 1.0  		0.6285689629012867 		0.8045441162037492  0.49369551813280993 		Uiso   ? 		Ti 		2.08184
Ti 1.0  		0.34236442217212093 		0.16243007164589265  0.4939783571578072 		Uiso   ? 		Ti 		2.06719
Ti 1.0  		0.34478657656224126 		0.6649327706349986  0.49383693764530856 		Uiso   ? 		Ti 		2.06719
Ti 1.0  		0.8421084381457427 		0.1619393463539111  0.4945440352078018 		Uiso   ? 		Ti 		2.06719
Ti 1.0  		0.8395928539811559 		0.6605162430071647  0.4939783571578072 		Uiso   ? 		Ti 		2.06719
Ti 1.0  		0.19556070658093822 		0.30400431838256947  0.4952511327702951 		Uiso   ? 		Ti 		2.06099
Ti 1.0  		0.1981865535205402 		0.80478947884974  0.4941197766703059 		Uiso   ? 		Ti 		2.06099
Ti 1.0  		0.6978897951139059 		0.31038374717832956  0.49369551813280993 		Uiso   ? 		Ti 		2.06099
Ti 1.0  		0.696738962396745 		0.8087152811855923  0.49383693764530856 		Uiso   ? 		Ti 		2.06099
Ti 1.0  		0.2549192866956216 		0.05766022180783198  0.4589063180581404 		Uiso   ? 		Ti 		2.06062
Ti 1.0  		0.2575692053578079 		0.5572185690450486  0.46032051318312694 		Uiso   ? 		Ti 		2.06062
Ti 1.0  		0.7577937141861698 		0.05790558445382275  0.4584820595206444 		Uiso   ? 		Ti 		2.06062
Ti 1.0  		0.7542309532596718 		0.553538129355187  0.4576335424456525 		Uiso   ? 		Ti 		2.06062
Ti 1.0  		0.3790825810948701 		0.11262145450976545  0.4589063180581404 		Uiso   ? 		Ti 		2.06589
Ti 1.0  		0.38184870303904883 		0.6170870546667976  0.45777496195815115 		Uiso   ? 		Ti 		2.06589
Ti 1.0  		0.8819986755536984 		0.11507508096967319  0.45819922049564715 		Uiso   ? 		Ti 		2.06589
Ti 1.0  		0.8797525226294577 		0.6129158896849545  0.4593305765956364 		Uiso   ? 		Ti 		2.06589
Ti 1.0  		0.3225528585153363 		0.18230444597114537  0.4579163814706498 		Uiso   ? 		Ti 		2.06240
Ti 1.0  		0.3235357251443186 		0.6823535185003436  0.4583406400081458 		Uiso   ? 		Ti 		2.06240
Ti 1.0  		0.8239967958675944 		0.18181372067916382  0.45777496195815115 		Uiso   ? 		Ti 		2.06240
Ti 1.0  		0.8206641203591216 		0.6808813426243989  0.45862347903314304 		Uiso   ? 		Ti 		2.06240
Ti 1.0  		0.0945078894134908 		0.2213171066836785  0.45749212293315383 		Uiso   ? 		Ti 		2.06438
Ti 1.0  		0.09309642307883176 		0.722102267150849  0.4569264448831592 		Uiso   ? 		Ti 		2.06438
Ti 1.0  		0.5931325134574484 		0.22156246932966928  0.4591891570831377 		Uiso   ? 		Ti 		2.06438
Ti 1.0  		0.5924964714983952 		0.7196486406909413  0.45735070342065515 		Uiso   ? 		Ti 		2.06438
Ti 1.0  		0.15060125323654652 		0.3449798802630288  0.45735070342065515 		Uiso   ? 		Ti 		2.05620
Ti 1.0  		0.15016242735008645 		0.84601040337619  0.4579163814706498 		Uiso   ? 		Ti 		2.05620
Ti 1.0  		0.6488337662812773 		0.3457159682010011  0.4556536692706713 		Uiso   ? 		Ti 		2.05620
Ti 1.0  		0.6474704433917868 		0.8440475022082639  0.45862347903314304 		Uiso   ? 		Ti 		2.05620
Ti 1.0  		0.2180295579648216 		0.2873196584551968  0.45904773757063905 		Uiso   ? 		Ti 		2.05958
Ti 1.0  		0.21907816328466828 		0.7883501815683581  0.4583406400081458 		Uiso   ? 		Ti 		2.05958
Ti 1.0  		0.7165731692181784 		0.2895279222691138  0.4587648985456418 		Uiso   ? 		Ti 		2.05958
Ti 1.0  		0.7166403364669782 		0.7885955442143489  0.45735070342065515 		Uiso   ? 		Ti 		2.05958
Ti 1.0  		0.21792776851957527 		0.3444891549710472  0.45947199610813505 		Uiso   ? 		Ti 		2.06106
Ti 1.0  		0.21721071376992135 		0.8445382275002454  0.4587648985456418 		Uiso   ? 		Ti 		2.06106
Ti 1.0  		0.7157769681879271 		0.3474335067229365  0.45735070342065515 		Uiso   ? 		Ti 		2.06106
Ti 1.0  		0.7157783967458624 		0.8455196780842086  0.4576335424456525 		Uiso   ? 		Ti 		2.06106
Ti 1.0  		0.33892377270955865 		0.09520070664442046  0.4939783571578072 		Uiso   ? 		Ti 		2.06172
Ti 1.0  		0.34541610971937237 		0.598194130925508  0.4944026156953032 		Uiso   ? 		Ti 		2.06172
Ti 1.0  		0.841250540096567 		0.09520070664442046  0.49510971325779646 		Uiso   ? 		Ti 		2.06172
Ti 1.0  		0.8386692172411159 		0.5927961527137109  0.49369551813280993 		Uiso   ? 		Ti 		2.06172
Ti 1.0  		0.09317514704850677 		0.287074295809206  0.4566436058581619 		Uiso   ? 		Ti 		2.05991
Ti 1.0  		0.09298168067980844 		0.7885955442143489  0.4589063180581404 		Uiso   ? 		Ti 		2.05991
Ti 1.0  		0.5909826797485785 		0.2878103837471784  0.45650218634566325 		Uiso   ? 		Ti 		2.05991
Ti 1.0  		0.590167016962628 		0.7863872804004319  0.45777496195815115 		Uiso   ? 		Ti 		2.05991
Ti 1.0  		0.26853906107735637 		0.09127490430856806  0.42199582529599106 		Uiso   ? 		Ti 		2.08446
Ti 1.0  		0.27071585594971503 		0.5932868780056925  0.4222786643209884 		Uiso   ? 		Ti 		2.08446
Ti 1.0  		0.7725504757432645 		0.09421925606045736  0.42199582529599106 		Uiso   ? 		Ti 		2.08446
Ti 1.0  		0.7695113031977221 		0.5913239768377663  0.4214301472459964 		Uiso   ? 		Ti 		2.08446
Ti 1.0  		0.15023725563184406 		0.22058101874570618  0.4579163814706498 		Uiso   ? 		Ti 		2.06607
Ti 1.0  		0.15077107019358296 		0.7218569045048583  0.4572092839081565 		Uiso   ? 		Ti 		2.06607
Ti 1.0  		0.6505048599864214 		0.22156246932966928  0.4589063180581404 		Uiso   ? 		Ti 		2.06607
Ti 1.0  		0.6506947069941021 		0.7208754539208951  0.4569264448831592 		Uiso   ? 		Ti 		2.06607
Ti 1.0  		0.37882108721438157 		0.1800961821572284  0.4570678643956579 		Uiso   ? 		Ti 		2.06510
Ti 1.0  		0.38127611094993424 		0.6830896064383158  0.45735070342065515 		Uiso   ? 		Ti 		2.06510
Ti 1.0  		0.8814020117419996 		0.18230444597114537  0.4583406400081458 		Uiso   ? 		Ti 		2.06510
Ti 1.0  		0.8773901987482582 		0.6791638041024635  0.4583406400081458 		Uiso   ? 		Ti 		2.06510
Ti 1.0  		0.32115048177157046 		0.056678771223868885  0.45862347903314304 		Uiso   ? 		Ti 		2.06183
Ti 1.0  		0.3256975378849862 		0.5591814702129748  0.4591891570831377 		Uiso   ? 		Ti 		2.06183
Ti 1.0  		0.8243360074707448 		0.0583963097458043  0.4576335424456525 		Uiso   ? 		Ti 		2.06183
Ti 1.0  		0.8221796649599528 		0.5559917558150947  0.4579163814706498 		Uiso   ? 		Ti 		2.06183
Ti 1.0  		0.25494017700925614 		0.11507508096967319  0.4587648985456418 		Uiso   ? 		Ti 		2.06222
Ti 1.0  		0.25686281474100514 		0.6148787908528806  0.4591891570831377 		Uiso   ? 		Ti 		2.06222
Ti 1.0  		0.7573567548097132 		0.11482971832368243  0.4591891570831377 		Uiso   ? 		Ti 		2.06222
Ti 1.0  		0.753802791506063 		0.6121798017469822  0.45749212293315383 		Uiso   ? 		Ti 		2.06222
Ti 1.0  		0.3452327391885802 		0.09421925606045736  0.11242851243643194 		Uiso   ? 		Ti 		2.08881
Ti 1.0  		0.3451860243013469 		0.5947590538816371  0.11242851243643194 		Uiso   ? 		Ti 		2.08881
Ti 1.0  		0.8447971343353046 		0.09421925606045736  0.11115573682394403 		Uiso   ? 		Ti 		2.08881
Ti 1.0  		0.8456244518599739 		0.5935322406516832  0.11186283438643731 		Uiso   ? 		Ti 		2.08881
Ti 1.0  		0.3431319091878692 		0.0929924428305035  0.26685862008496486 		Uiso   ? 		Ti 		2.08890
Ti 1.0  		0.3432976844729655 		0.5935322406516832  0.2675657176474581 		Uiso   ? 		Ti 		2.08890
Ti 1.0  		0.8435462650239117 		0.0929924428305035  0.2667172005724662 		Uiso   ? 		Ti 		2.08890
Ti 1.0  		0.8444481188622932 		0.5950044165276278  0.26657578105996754 		Uiso   ? 		Ti 		2.08890
Ti 1.0  		0.27028944704712055 		0.09520070664442046  0.18511814186074138 		Uiso   ? 		Ti 		2.08893
Ti 1.0  		0.27090427439946024 		0.5945136912356463  0.18525956137324004 		Uiso   ? 		Ti 		2.08893
Ti 1.0  		0.7700816064659108 		0.09225635489253117  0.1841282052732508 		Uiso   ? 		Ti 		2.08893
Ti 1.0  		0.7710404013723089 		0.5935322406516832  0.18497672234824272 		Uiso   ? 		Ti 		2.08893
Ti 1.0  		0.3445485861093921 		0.16807341250368046  0.1128527709739279 		Uiso   ? 		Ti 		2.08881
Ti 1.0  		0.34492685156681796 		0.6686132103248602  0.11172141487393865 		Uiso   ? 		Ti 		2.08881
Ti 1.0  		0.8449629419454346 		0.16807341250368046  0.11157999536143999 		Uiso   ? 		Ti 		2.08881
Ti 1.0  		0.8454222201934612 		0.666650309156934  0.11157999536143999 		Uiso   ? 		Ti 		2.08881
Ti 1.0  		0.3434773376248965 		0.16635587398174503  0.26685862008496486 		Uiso   ? 		Ti 		2.08890
Ti 1.0  		0.3450407337028509 		0.6671410344489155  0.2675657176474581 		Uiso   ? 		Ti 		2.08890
Ti 1.0  		0.8436551315660253 		0.16758268721169892  0.2657272639849756 		Uiso   ? 		Ti 		2.08890
Ti 1.0  		0.844703736885872 		0.6686132103248602  0.26643436154746886 		Uiso   ? 		Ti 		2.08890
Ti 1.0  		0.12870817535072746 		0.23702031602708803  0.11186283438643731 		Uiso   ? 		Ti 		2.08881
Ti 1.0  		0.12877534259952728 		0.7360879379723232  0.11271135146142924 		Uiso   ? 		Ti 		2.08881
Ti 1.0  		0.6270457729086434 		0.2345666895671803  0.11214567341143462 		Uiso   ? 		Ti 		2.08881
Ti 1.0  		0.6288633261272072 		0.7375601138482677  0.11228709292393328 		Uiso   ? 		Ti 		2.08881
Ti 1.0  		0.3440907364193008 		0.16758268721169892  0.1854009808857387 		Uiso   ? 		Ti 		2.08893
Ti 1.0  		0.34522915215259614 		0.6683678476788695  0.18582523942323467 		Uiso   ? 		Ti 		2.08893
Ti 1.0  		0.8436222622205931 		0.16709196191971737  0.18441104429824812 		Uiso   ? 		Ti 		2.08893
Ti 1.0  		0.8447935472993207 		0.6683678476788695  0.1854009808857387 		Uiso   ? 		Ti 		2.08893
Ti 1.0  		0.12927990717685167 		0.23603886544312494  0.2660101030099729 		Uiso   ? 		Ti 		2.08890
Ti 1.0  		0.1270666235980431 		0.7343703994503877  0.2675657176474581 		Uiso   ? 		Ti 		2.08890
Ti 1.0  		0.6281170213931389 		0.23628422808911573  0.2674242981349595 		Uiso   ? 		Ti 		2.08890
Ti 1.0  		0.6279147574015926 		0.7360879379723232  0.26685862008496486 		Uiso   ? 		Ti 		2.08890
Ti 1.0  		0.2707954401823804 		0.09323780547649427  0.34039676658426626 		Uiso   ? 		Ti 		2.08876
Ti 1.0  		0.27144313688015226 		0.5930415153597016  0.34039676658426626 		Uiso   ? 		Ti 		2.08876
Ti 1.0  		0.7711287832278221 		0.09520070664442046  0.339689669021773 		Uiso   ? 		Ti 		2.08876
Ti 1.0  		0.7696756499248831 		0.593777603297674  0.3401139275592689 		Uiso   ? 		Ti 		2.08876
Ti 1.0  		0.1286286234430957 		0.31038374717832956  0.11186283438643731 		Uiso   ? 		Ti 		2.08881
Ti 1.0  		0.12854024158758243 		0.8087152811855923  0.11186283438643731 		Uiso   ? 		Ti 		2.08881
Ti 1.0  		0.6279717307946427 		0.30866620865639416  0.11228709292393328 		Uiso   ? 		Ti 		2.08881
Ti 1.0  		0.6282689834614679 		0.8111689076455001  0.11172141487393865 		Uiso   ? 		Ti 		2.08881
Ti 1.0  		0.12983782578620853 		0.30940229659436647  0.26657578105996754 		Uiso   ? 		Ti 		2.08890
Ti 1.0  		0.12881847045077638 		0.8096967317695555  0.26685862008496486 		Uiso   ? 		Ti 		2.08890
Ti 1.0  		0.6291897307606035 		0.30940229659436647  0.2677071371599568 		Uiso   ? 		Ti 		2.08890
Ti 1.0  		0.6280476956662904 		0.8094513691235646  0.26685862008496486 		Uiso   ? 		Ti 		2.08890
Ti 1.0  		0.20169237337902174 		0.30989302188634804  0.11200425389893597 		Uiso   ? 		Ti 		2.08881
Ti 1.0  		0.201825279318686 		0.8099420944155463  0.11214567341143462 		Uiso   ? 		Ti 		2.08881
Ti 1.0  		0.7010924217985852 		0.3074393954264403  0.11172141487393865 		Uiso   ? 		Ti 		2.08881
Ti 1.0  		0.701748916119205 		0.8089606438315832  0.11172141487393865 		Uiso   ? 		Ti 		2.08881
Ti 1.0  		0.20229697455057816 		0.30940229659436647  0.2660101030099729 		Uiso   ? 		Ti 		2.08890
Ti 1.0  		0.20178361235040584 		0.8077338306016292  0.2671414591099622 		Uiso   ? 		Ti 		2.08890
Ti 1.0  		0.7025317095597233 		0.30989302188634804  0.2671414591099622 		Uiso   ? 		Ti 		2.08890
Ti 1.0  		0.701323935774546 		0.8089606438315832  0.26615152252247154 		Uiso   ? 		Ti 		2.08890
Ti 1.0  		0.34436016765964683 		0.16684659927372658  0.33954824950927426 		Uiso   ? 		Ti 		2.08876
Ti 1.0  		0.3441250343226684 		0.6661595838649524  0.3402553470717676 		Uiso   ? 		Ti 		2.08876
Ti 1.0  		0.8434097720482636 		0.16709196191971737  0.3394068299967756 		Uiso   ? 		Ti 		2.08876
Ti 1.0  		0.8441232074368998 		0.6678771223868879  0.33997250804677026 		Uiso   ? 		Ti 		2.08876
Ti 1.0  		0.12782534531597717 		0.2365295907351065  0.18525956137324004 		Uiso   ? 		Ti 		2.08893
Ti 1.0  		0.12820361077340298 		0.7370693885562862  0.18511814186074138 		Uiso   ? 		Ti 		2.08893
Ti 1.0  		0.6269800342177789 		0.2335852389832172  0.185683819910736 		Uiso   ? 		Ti 		2.08893
Ti 1.0  		0.6285281561959969 		0.737314751202277  0.18525956137324004 		Uiso   ? 		Ti 		2.08893
Ti 1.0  		0.1295252666946134 		0.2365295907351065  0.33954824950927426 		Uiso   ? 		Ti 		2.08875
Ti 1.0  		0.1263634143901901 		0.7333889488664246  0.3401139275592689 		Uiso   ? 		Ti 		2.08875
Ti 1.0  		0.6301849820484177 		0.23702031602708803  0.3406796056092635 		Uiso   ? 		Ti 		2.08875
Ti 1.0  		0.627824946988144 		0.7363333006183139  0.33997250804677026 		Uiso   ? 		Ti 		2.08875
Ti 1.0  		0.1268629633735951 		0.30940229659436647  0.18497672234824272 		Uiso   ? 		Ti 		2.08893
Ti 1.0  		0.12803424845232259 		0.8106781823535185  0.18483530283574406 		Uiso   ? 		Ti 		2.08893
Ti 1.0  		0.6288786325519773 		0.30793012071842185  0.186108078448232 		Uiso   ? 		Ti 		2.08893
Ti 1.0  		0.6281791730480192 		0.8114142702914908  0.1846938833232454 		Uiso   ? 		Ti 		2.08893
Ti 1.0  		0.12886518533800956 		0.30915693394837573  0.3389825714592796 		Uiso   ? 		Ti 		2.08875
Ti 1.0  		0.1286629213464633 		0.8089606438315832  0.3402553470717676 		Uiso   ? 		Ti 		2.08875
Ti 1.0  		0.6300725607953538 		0.30989302188634804  0.3402553470717676 		Uiso   ? 		Ti 		2.08875
Ti 1.0  		0.628146303702587 		0.8109235449995094  0.3394068299967756 		Uiso   ? 		Ti 		2.08875
Ti 1.0  		0.20105490286203315 		0.30989302188634804  0.18455246381074675 		Uiso   ? 		Ti 		2.08893
Ti 1.0  		0.2013104885605782 		0.810187457061537  0.1846938833232454 		Uiso   ? 		Ti 		2.08893
Ti 1.0  		0.7023432911099782 		0.30866620865639416  0.18624949796073062 		Uiso   ? 		Ti 		2.08893
Ti 1.0  		0.7027872952582684 		0.810187457061537  0.18525956137324004 		Uiso   ? 		Ti 		2.08893
Ti 1.0  		0.20241965430945902 		0.30964765924035725  0.3394068299967756 		Uiso   ? 		Ti 		2.08876
Ti 1.0  		0.20017350138521828 		0.8074884679556384  0.3401139275592689 		Uiso   ? 		Ti 		2.08876
Ti 1.0  		0.7030465003178312 		0.30964765924035725  0.33997250804677026 		Uiso   ? 		Ti 		2.08876
Ti 1.0  		0.7016350339831721 		0.8104328197075278  0.33983108853427163 		Uiso   ? 		Ti 		2.08876
Ti 1.0  		0.2533989861438827 		0.05716949651585043  0.14976326373607723 		Uiso   ? 		Ti 		2.07817
Ti 1.0  		0.256360003014695 		0.5582000196290117  0.14849048812358934 		Uiso   ? 		Ti 		2.07817
Ti 1.0  		0.7561178645301179 		0.056678771223868885  0.14750055153609873 		Uiso   ? 		Ti 		2.07817
Ti 1.0  		0.754730469918043 		0.5562371184610855  0.148631907636088 		Uiso   ? 		Ti 		2.07817
Ti 1.0  		0.25509890752251896 		0.05716949651585043  0.30419337138461017 		Uiso   ? 		Ti 		2.07818
Ti 1.0  		0.2554443036345126 		0.5572185690450486  0.3037691128471142 		Uiso   ? 		Ti 		2.07818
Ti 1.0  		0.754753113082692 		0.05692413386985966  0.3030620152846209 		Uiso   ? 		Ti 		2.07818
Ti 1.0  		0.7553767380578796 		0.5579546569830209  0.30235491772212764 		Uiso   ? 		Ti 		2.07818
Ti 1.0  		0.380488999510576 		0.11458435567769164  0.148631907636088 		Uiso   ? 		Ti 		2.07817
Ti 1.0  		0.3832134544864746 		0.6168416920208067  0.1489147466610853 		Uiso   ? 		Ti 		2.07817
Ti 1.0  		0.8816065645544715 		0.11556580626165473  0.1472177125111014 		Uiso   ? 		Ti 		2.07817
Ti 1.0  		0.8821644508387947 		0.6156148787908529  0.14877332714858665 		Uiso   ? 		Ti 		2.07817
Ti 1.0  		0.3816083914402401 		0.11384826773971932  0.3032034347971196 		Uiso   ? 		Ti 		2.07818
Ti 1.0  		0.38180703607076866 		0.6148787908528806  0.30419337138461017 		Uiso   ? 		Ti 		2.07818
Ti 1.0  		0.8823097737623246 		0.11654725684561783  0.3033448543096182 		Uiso   ? 		Ti 		2.07818
Ti 1.0  		0.8799497387020507 		0.6158602414368437  0.3033448543096182 		Uiso   ? 		Ti 		2.07818
Ti 1.0  		0.3228310873785302 		0.18328589655510846  0.148631907636088 		Uiso   ? 		Ti 		2.07817
Ti 1.0  		0.3237898822849282 		0.6845617823142606  0.14877332714858665 		Uiso   ? 		Ti 		2.07817
Ti 1.0  		0.822419554247839 		0.18205908332515458  0.1489147466610853 		Uiso   ? 		Ti 		2.07817
Ti 1.0  		0.8228306890506971 		0.6830896064383158  0.14834906861109068 		Uiso   ? 		Ti 		2.07817
Ti 1.0  		0.3235254989635353 		0.18254980861713613  0.30348627382211685 		Uiso   ? 		Ti 		2.07818
Ti 1.0  		0.3240505159024263 		0.6821081558543527  0.30362769333461553 		Uiso   ? 		Ti 		2.07818
Ti 1.0  		0.8223954825252547 		0.18328589655510846  0.3030620152846209 		Uiso   ? 		Ti 		2.07818
Ti 1.0  		0.8226510682237996 		0.6835803317302974  0.30362769333461553 		Uiso   ? 		Ti 		2.07818
Ti 1.0  		0.3440147392226195 		0.09348316812248504  0.18525956137324004 		Uiso   ? 		Ti 		2.08893
Ti 1.0  		0.34454855378435834 		0.5947590538816371  0.18582523942323467 		Uiso   ? 		Ti 		2.08893
Ti 1.0  		0.843456454610463 		0.09323780547649427  0.18441104429824812 		Uiso   ? 		Ti 		2.08893
Ti 1.0  		0.844259700412548 		0.593777603297674  0.18554240039823736 		Uiso   ? 		Ti 		2.08893
Ti 1.0  		0.09213762817243376 		0.22082638139169694  0.14834906861109068 		Uiso   ? 		Ti 		2.07817
Ti 1.0  		0.09138770407734759 		0.7203847286289136  0.14834906861109068 		Uiso   ? 		Ti 		2.07817
Ti 1.0  		0.5898946962813775 		0.21763666699381687  0.14948042471107992 		Uiso   ? 		Ti 		2.07817
Ti 1.0  		0.5920562170539998 		0.7225929924428305  0.1489147466610853 		Uiso   ? 		Ti 		2.07817
Ti 1.0  		0.27010102859737534 		0.09397389341446659  0.11299419048642656 		Uiso   ? 		Ti 		2.08880
Ti 1.0  		0.27154174491644884 		0.5945136912356463  0.11157999536143999 		Uiso   ? 		Ti 		2.08880
Ti 1.0  		0.770817685019196 		0.09372853076847582  0.11186283438643731 		Uiso   ? 		Ti 		2.08880
Ti 1.0  		0.7708279111999794 		0.5935322406516832  0.11200425389893597 		Uiso   ? 		Ti 		2.08880
Ti 1.0  		0.09167977848234253 		0.2203356560997154  0.30235491772212764 		Uiso   ? 		Ti 		2.07818
Ti 1.0  		0.09066042314691036 		0.7206300912749043  0.30362769333461553 		Uiso   ? 		Ti 		2.07818
Ti 1.0  		0.5920371932503685 		0.22107174403768773  0.30419337138461017 		Uiso   ? 		Ti 		2.07818
Ti 1.0  		0.5914099489141633 		0.7208754539208951  0.3037691128471142 		Uiso   ? 		Ti 		2.07818
Ti 1.0  		0.14963741041119544 		0.3464520561389734  0.14849048812358934 		Uiso   ? 		Ti 		2.07817
Ti 1.0  		0.14846250597145022 		0.84601040337619  0.14834906861109068 		Uiso   ? 		Ti 		2.07817
Ti 1.0  		0.6496837269705955 		0.3457159682010011  0.14820764909859205 		Uiso   ? 		Ti 		2.07817
Ti 1.0  		0.6502175415323344 		0.8469918539601532  0.14750055153609873 		Uiso   ? 		Ti 		2.07817
Ti 1.0  		0.15033182199620054 		0.3457159682010011  0.30235491772212764 		Uiso   ? 		Ti 		2.07818
Ti 1.0  		0.1506531463856099 		0.8469918539601532  0.30419337138461017 		Uiso   ? 		Ti 		2.07818
Ti 1.0  		0.650476746591897 		0.3464520561389734  0.3044762104096075 		Uiso   ? 		Ti 		2.07818
Ti 1.0  		0.6508309403267386 		0.848218667190107  0.3033448543096182 		Uiso   ? 		Ti 		2.07818
Ti 1.0  		0.34565771953323926 		0.09421925606045736  0.34039676658426626 		Uiso   ? 		Ti 		2.08876
Ti 1.0  		0.3456920174366069 		0.5927961527137109  0.3402553470717676 		Uiso   ? 		Ti 		2.08876
Ti 1.0  		0.8447971343353046 		0.09421925606045736  0.33997250804677026 		Uiso   ? 		Ti 		2.08876
Ti 1.0  		0.842706530515377 		0.5927961527137109  0.3401139275592689 		Uiso   ? 		Ti 		2.08876
Ti 1.0  		0.21788280648335645 		0.2883011090391599  0.14834906861109068 		Uiso   ? 		Ti 		2.07817
Ti 1.0  		0.2183837516996632 		0.7890862695063304  0.14792481007359473 		Uiso   ? 		Ti 		2.07817
Ti 1.0  		0.7168338028356767 		0.287074295809206  0.14948042471107992 		Uiso   ? 		Ti 		2.07817
Ti 1.0  		0.7191004081214839 		0.7888409068603396  0.14834906861109068 		Uiso   ? 		Ti 		2.07817
Ti 1.0  		0.21791567582878862 		0.2887918343311415  0.3032034347971196 		Uiso   ? 		Ti 		2.07819
Ti 1.0  		0.21581627438601297 		0.7856511924624595  0.3032034347971196 		Uiso   ? 		Ti 		2.07819
Ti 1.0  		0.7179379206656044 		0.289282559623123  0.30391053235961285 		Uiso   ? 		Ti 		2.07819
Ti 1.0  		0.7164278462946487 		0.7885955442143489  0.30362769333461553 		Uiso   ? 		Ti 		2.07819
Ti 1.0  		0.27028944704712055 		0.09520070664442046  0.2675657176474581 		Uiso   ? 		Ti 		2.08890
Ti 1.0  		0.2698418235378126 		0.5945136912356463  0.2675657176474581 		Uiso   ? 		Ti 		2.08890
Ti 1.0  		0.7711528549504065 		0.09397389341446659  0.26657578105996754 		Uiso   ? 		Ti 		2.08890
Ti 1.0  		0.770345989787304 		0.5942683285896556  0.26615152252247154 		Uiso   ? 		Ti 		2.08890
Ti 1.0  		0.21715234414396944 		0.34718814407694576  0.14806622958609336 		Uiso   ? 		Ti 		2.07934
Ti 1.0  		0.2173181194290658 		0.8477279418981255  0.14820764909859205 		Uiso   ? 		Ti 		2.07934
Ti 1.0  		0.717132922012505 		0.3454706055550103  0.14820764909859205 		Uiso   ? 		Ti 		2.07934
Ti 1.0  		0.7187861285039081 		0.84601040337619  0.14820764909859205 		Uiso   ? 		Ti 		2.07934
Ti 1.0  		0.2174546447297476 		0.34694278143095497  0.30263775674712495 		Uiso   ? 		Ti 		2.07935
Ti 1.0  		0.2180935438046716 		0.845028952792227  0.30362769333461553 		Uiso   ? 		Ti 		2.07935
Ti 1.0  		0.7186291508416596 		0.34718814407694576  0.30362769333461553 		Uiso   ? 		Ti 		2.07935
Ti 1.0  		0.7176996059196761 		0.8472372166061439  0.30263775674712495 		Uiso   ? 		Ti 		2.07935
Ti 1.0  		0.09017621291330906 		0.2883011090391599  0.14806622958609336 		Uiso   ? 		Ti 		2.07934
Ti 1.0  		0.08994107957633063 		0.7876140936303858  0.14877332714858665 		Uiso   ? 		Ti 		2.07934
Ti 1.0  		0.5910965618846115 		0.2863382078712337  0.14877332714858665 		Uiso   ? 		Ti 		2.07934
Ti 1.0  		0.5912470630699714 		0.7898223574443027  0.14792481007359473 		Uiso   ? 		Ti 		2.07934
Ti 1.0  		0.09135254591098968 		0.2868289331632153  0.30235491772212764 		Uiso   ? 		Ti 		2.07935
Ti 1.0  		0.09155119054151817 		0.7878594562763765  0.3033448543096182 		Uiso   ? 		Ti 		2.07935
Ti 1.0  		0.5922992877508357 		0.2900186475610953  0.30391053235961285 		Uiso   ? 		Ti 		2.07935
Ti 1.0  		0.5922437752407547 		0.7888409068603396  0.30362769333461553 		Uiso   ? 		Ti 		2.07935
Ti 1.0  		0.15060529490848665 		0.2213171066836785  0.14919758568608263 		Uiso   ? 		Ti 		2.07934
Ti 1.0  		0.1512858609516907 		0.7216115418588674  0.1489147466610853 		Uiso   ? 		Ti 		2.07934
Ti 1.0  		0.6493678728110616 		0.21886348022377075  0.14919758568608263 		Uiso   ? 		Ti 		2.07934
Ti 1.0  		0.6497878052367675 		0.7216115418588674  0.14820764909859205 		Uiso   ? 		Ti 		2.07934
Ti 1.0  		0.15053955621762227 		0.2203356560997154  0.30263775674712495 		Uiso   ? 		Ti 		2.07935
Ti 1.0  		0.14735363219061473 		0.7184218274609874  0.3037691128471142 		Uiso   ? 		Ti 		2.07935
Ti 1.0  		0.6501696900552111 		0.2213171066836785  0.30362769333461553 		Uiso   ? 		Ti 		2.07935
Ti 1.0  		0.6496651254778867 		0.7213661792128767  0.30292059577212227 		Uiso   ? 		Ti 		2.07935
Ti 1.0  		0.38138856452803177 		0.18353125920109925  0.14919758568608263 		Uiso   ? 		Ti 		2.07934
Ti 1.0  		0.3825598496067593 		0.6848071449602513  0.1496218442235786 		Uiso   ? 		Ti 		2.07934
Ti 1.0  		0.8817131099506257 		0.18377662184709  0.14806622958609336 		Uiso   ? 		Ti 		2.07934
Ti 1.0  		0.8821483164760681 		0.6835803317302974  0.148631907636088 		Uiso   ? 		Ti 		2.07934
Ti 1.0  		0.3812001460782865 		0.18230444597114537  0.30362769333461553 		Uiso   ? 		Ti 		2.07935
Ti 1.0  		0.3823056924661497 		0.6825988811463344  0.3040519518721115 		Uiso   ? 		Ti 		2.07935
Ti 1.0  		0.8803724302257842 		0.18279517126312692  0.3020720786971303 		Uiso   ? 		Ti 		2.07935
Ti 1.0  		0.8799576760619083 		0.6825988811463344  0.3033448543096182 		Uiso   ? 		Ti 		2.07935
Ti 1.0  		0.3221559915652017 		0.05741485916184121  0.14905616617358397 		Uiso   ? 		Ti 		2.07934
Ti 1.0  		0.32347402812539433 		0.5577092943370302  0.1493390051985813 		Uiso   ? 		Ti 		2.07934
Ti 1.0  		0.8234772491585788 		0.056678771223868885  0.1466520344611068 		Uiso   ? 		Ti 		2.07934
Ti 1.0  		0.8234305342713456 		0.5572185690450486  0.148631907636088 		Uiso   ? 		Ti 		2.07934
Ti 1.0  		0.32242542280554765 		0.056678771223868885  0.30433479089710885 		Uiso   ? 		Ti 		2.07935
Ti 1.0  		0.323285609675649 		0.5564824811070762  0.30391053235961285 		Uiso   ? 		Ti 		2.07935
Ti 1.0  		0.823665667608324 		0.05790558445382275  0.3033448543096182 		Uiso   ? 		Ti 		2.07935
Ti 1.0  		0.8228828741678056 		0.5569732063990579  0.3033448543096182 		Uiso   ? 		Ti 		2.07935
Ti 1.0  		0.2547605561823588 		0.11556580626165473  0.14877332714858665 		Uiso   ? 		Ti 		2.07934
Ti 1.0  		0.25638969095117753 		0.6173324173127883  0.14849048812358934 		Uiso   ? 		Ti 		2.07934
Ti 1.0  		0.7547980751189108 		0.113112179801747  0.14792481007359473 		Uiso   ? 		Ti 		2.07934
Ti 1.0  		0.7544490596458995 		0.6138973402689174  0.148631907636088 		Uiso   ? 		Ti 		2.07934
Ti 1.0  		0.2545151966645971 		0.11507508096967319  0.30433479089710885 		Uiso   ? 		Ti 		2.07935
Ti 1.0  		0.2559799847062549 		0.6143880655608991  0.30433479089710885 		Uiso   ? 		Ti 		2.07935
Ti 1.0  		0.7542022715702025 		0.11532044361566396  0.30263775674712495 		Uiso   ? 		Ti 		2.07935
Ti 1.0  		0.7559781578204863 		0.6161056040828345  0.3027791762596236 		Uiso   ? 		Ti 		2.07935
Ti 1.0  		0.2723157407341193 		0.09372853076847582  0.031677970799699064 		Uiso   ? 		Ti 		2.08794
Ti 1.0  		0.27120657498523854 		0.5942683285896556  0.03012235616221384 		Uiso   ? 		Ti 		2.08794
Ti 1.0  		0.7717333843993786 		0.09470998135243891  0.030405195187211152 		Uiso   ? 		Ti 		2.08794
Ti 1.0  		0.7706394927502342 		0.5923054274217294  0.03082945372470712 		Uiso   ? 		Ti 		2.08794
Ti 1.0  		0.3445791343088649 		0.16218470899990187  -0.0412944976496077 		Uiso   ? 		Ti 		2.06631
Ti 1.0  		0.3401928055615924 		0.6629698694670724  -0.04256727326209561 		Uiso   ? 		Ti 		2.06631
Ti 1.0  		0.8420755688003105 		0.16144862106192956  -0.04341579033708755 		Uiso   ? 		Ti 		2.06631
Ti 1.0  		0.842265415807991 		0.6607616056531554  -0.04186017569960233 		Uiso   ? 		Ti 		2.06631
Ti 1.0  		0.13112890118291246 		0.241436843654922  -0.04270869277459427 		Uiso   ? 		Ti 		2.06632
Ti 1.0  		0.1323330556070722 		0.7432034547060556  -0.04341579033708755 		Uiso   ? 		Ti 		2.06632
Ti 1.0  		0.6282332246751312 		0.24119148100893123  -0.04157733667460501 		Uiso   ? 		Ti 		2.06632
Ti 1.0  		0.6347408357846813 		0.7412405535381293  -0.04299153179959158 		Uiso   ? 		Ti 		2.06632
Ti 1.0  		0.1293383091278372 		0.30670330748846797  -0.040304561062117106 		Uiso   ? 		Ti 		2.06624
Ti 1.0  		0.13216137214003232 		0.8104328197075278  -0.042284434237098295 		Uiso   ? 		Ti 		2.06624
Ti 1.0  		0.6327779919676212 		0.31062910982432035  -0.04186017569960233 		Uiso   ? 		Ti 		2.06624
Ti 1.0  		0.6337103940054755 		0.8067523800176661  -0.04285011228709292 		Uiso   ? 		Ti 		2.06624
Ti 1.0  		0.19768792945019287 		0.31038374717832956  -0.04285011228709292 		Uiso   ? 		Ti 		2.06623
Ti 1.0  		0.20062487459842102 		0.8126410835214447  -0.04256727326209561 		Uiso   ? 		Ti 		2.06623
Ti 1.0  		0.6976837814184649 		0.3057218569045049  -0.04115307813710904 		Uiso   ? 		Ti 		2.06623
Ti 1.0  		0.7009799682204877 		0.806997742663657  -0.04270869277459427 		Uiso   ? 		Ti 		2.06623
Ti 1.0  		0.1303752273839315 		0.2365295907351065  0.02998093664971518 		Uiso   ? 		Ti 		2.08794
Ti 1.0  		0.12895496342642454 		0.7355972126803416  0.02913241957472324 		Uiso   ? 		Ti 		2.08794
Ti 1.0  		0.6268902238043302 		0.233830601629208  0.030688034212208466 		Uiso   ? 		Ti 		2.08794
Ti 1.0  		0.6284295481597004 		0.7358425753263325  0.03012235616221384 		Uiso   ? 		Ti 		2.08794
Ti 1.0  		0.12990356447707288 		0.31038374717832956  0.03196080982469637 		Uiso   ? 		Ti 		2.08794
Ti 1.0  		0.1293989998997484 		0.8104328197075278  0.03082945372470712 		Uiso   ? 		Ti 		2.08794
Ti 1.0  		0.6274810117591194 		0.30768475807243106  0.03097087323720578 		Uiso   ? 		Ti 		2.08794
Ti 1.0  		0.6289305257010408 		0.8099420944155463  0.029415258599720554 		Uiso   ? 		Ti 		2.08794
Ti 1.0  		0.2043079941378405 		0.31087447247031114  0.03082945372470712 		Uiso   ? 		Ti 		2.08794
Ti 1.0  		0.2013674296285947 		0.8094513691235646  0.030405195187211152 		Uiso   ? 		Ti 		2.08794
Ti 1.0  		0.7002095917638349 		0.3069486701344587  0.030546614699709807 		Uiso   ? 		Ti 		2.08794
Ti 1.0  		0.7029669160851657 		0.8096967317695555  0.030546614699709807 		Uiso   ? 		Ti 		2.08794
Ti 1.0  		0.2558021167303719 		0.05815094709981353  -0.0049496829374529785 		Uiso   ? 		Ti 		2.07129
Ti 1.0  		0.2566294342550411 		0.5574639316910394  -0.005232521962450291 		Uiso   ? 		Ti 		2.07129
Ti 1.0  		0.7571891130146134 		0.0583963097458043  -0.006646717087436856 		Uiso   ? 		Ti 		2.07129
Ti 1.0  		0.7559068029157237 		0.5547649425851409  -0.005515360987447604 		Uiso   ? 		Ti 		2.07129
Ti 1.0  		0.34456239932615945 		0.09372853076847582  0.031112292749704434 		Uiso   ? 		Ti 		2.08794
Ti 1.0  		0.3441235734396993 		0.5947590538816371  0.03012235616221384 		Uiso   ? 		Ti 		2.08794
Ti 1.0  		0.8460720753692818 		0.09421925606045736  0.029839517137216526 		Uiso   ? 		Ti 		2.08794
Ti 1.0  		0.8458698113777356 		0.5940229659436648  0.030405195187211152 		Uiso   ? 		Ti 		2.08794
Ti 1.0  		0.37963024119841 		0.11286681715575622  -0.006646717087436856 		Uiso   ? 		Ti 		2.07130
Ti 1.0  		0.3810228140723149 		0.6158602414368437  -0.0069295561124341695 		Uiso   ? 		Ti 		2.07130
Ti 1.0  		0.8805681854154083 		0.11433899303170086  -0.007070975624932826 		Uiso   ? 		Ti 		2.07130
Ti 1.0  		0.8796955815614411 		0.6136519776229267  -0.006363878062439543 		Uiso   ? 		Ti 		2.07130
Ti 1.0  		0.274826276979753 		0.09789969575031898  -0.04044598057461576 		Uiso   ? 		Ti 		2.06626
Ti 1.0  		0.2746962281559596 		0.5940229659436648  -0.0412944976496077 		Uiso   ? 		Ti 		2.06626
Ti 1.0  		0.774013835226987 		0.09544606929041125  -0.042143014724599644 		Uiso   ? 		Ti 		2.06626
Ti 1.0  		0.7768105053706384 		0.5940229659436648  -0.04171875618710367 		Uiso   ? 		Ti 		2.06626
Ti 1.0  		0.32379493020388134 		0.18181372067916382  -0.006646717087436856 		Uiso   ? 		Ti 		2.07130
Ti 1.0  		0.3218358037656824 		0.6823535185003436  -0.00608103903744223 		Uiso   ? 		Ti 		2.07130
Ti 1.0  		0.824789815488896 		0.18254980861713613  -0.007778073187426108 		Uiso   ? 		Ti 		2.07130
Ti 1.0  		0.8235491723582864 		0.6811267052703897  -0.005939619524943574 		Uiso   ? 		Ti 		2.07130
Ti 1.0  		0.09435234030917773 		0.22058101874570618  -0.006788136599935513 		Uiso   ? 		Ti 		2.07130
Ti 1.0  		0.09353020104633875 		0.7238198056727845  -0.007919492699924766 		Uiso   ? 		Ti 		2.07130
Ti 1.0  		0.5909747423887209 		0.22107174403768773  -0.005939619524943574 		Uiso   ? 		Ti 		2.07130
Ti 1.0  		0.5942709291907438 		0.7223476297968398  -0.007495234162428795 		Uiso   ? 		Ti 		2.07130
Ti 1.0  		0.14875458037644512 		0.3459613308469919  -0.005232521962450291 		Uiso   ? 		Ti 		2.07129
Ti 1.0  		0.15059620531759343 		0.8477279418981255  -0.0065052975749382 		Uiso   ? 		Ti 		2.07129
Ti 1.0  		0.6496508576251633 		0.34522524290901957  -0.004666843912455665 		Uiso   ? 		Ti 		2.07129
Ti 1.0  		0.6515734953569123 		0.845028952792227  -0.007212395137431482 		Uiso   ? 		Ti 		2.07129
Ti 1.0  		0.21880730348638683 		0.2910000981450584  -0.006363878062439543 		Uiso   ? 		Ti 		2.07129
Ti 1.0  		0.21878466032173793 		0.7903130827362843  -0.007070975624932826 		Uiso   ? 		Ti 		2.07129
Ti 1.0  		0.7147899139029821 		0.2851113946412798  -0.004808263424954322 		Uiso   ? 		Ti 		2.07129
Ti 1.0  		0.717849538810091 		0.7876140936303858  -0.005656780499946261 		Uiso   ? 		Ti 		2.07129
Ti 1.0  		0.21815785393760057 		0.34792423201491807  -0.006363878062439543 		Uiso   ? 		Ti 		2.07288
Ti 1.0  		0.21783291018717352 		0.8474825792521348  -0.005939619524943574 		Uiso   ? 		Ti 		2.07288
Ti 1.0  		0.7152357845612757 		0.342526253803121  -0.005232521962450291 		Uiso   ? 		Ti 		2.07288
Ti 1.0  		0.717927370191742 		0.8442928648542546  -0.0065052975749382 		Uiso   ? 		Ti 		2.07288
Ti 1.0  		0.09296265687617722 		0.287074295809206  -0.004242585374959695 		Uiso   ? 		Ti 		2.07288
Ti 1.0  		0.09369368751050927 		0.7912945333202475  -0.007070975624932826 		Uiso   ? 		Ti 		2.07288
Ti 1.0  		0.5923562288188523 		0.289282559623123  -0.0053739414749489475 		Uiso   ? 		Ti 		2.07288
Ti 1.0  		0.5953741867576812 		0.789576994798312  -0.0069295561124341695 		Uiso   ? 		Ti 		2.07288
Ti 1.0  		0.1527959353226463 		0.2222985572676416  -0.006788136599935513 		Uiso   ? 		Ti 		2.07288
Ti 1.0  		0.15111503774764126 		0.7238198056727845  -0.007778073187426108 		Uiso   ? 		Ti 		2.07288
Ti 1.0  		0.6466953109842264 		0.21861811757778  -0.0065052975749382 		Uiso   ? 		Ti 		2.07288
Ti 1.0  		0.6504493474763404 		0.7203847286289136  -0.006788136599935513 		Uiso   ? 		Ti 		2.07288
Ti 1.0  		0.3800390871803423 		0.18083227009520073  -0.005656780499946261 		Uiso   ? 		Ti 		2.07289
Ti 1.0  		0.3800581109839735 		0.6823535185003436  -0.007495234162428795 		Uiso   ? 		Ti 		2.07289
Ti 1.0  		0.8822848417767499 		0.18279517126312692  -0.007495234162428795 		Uiso   ? 		Ti 		2.07289
Ti 1.0  		0.8808317084738108 		0.6813720679163805  -0.006646717087436856 		Uiso   ? 		Ti 		2.07289
Ti 1.0  		0.32150972342536516 		0.05569732063990579  -0.0053739414749489475 		Uiso   ? 		Ti 		2.07288
Ti 1.0  		0.3245124072644577 		0.5589361075669841  -0.006363878062439543 		Uiso   ? 		Ti 		2.07288
Ti 1.0  		0.8232735566090972 		0.0583963097458043  -0.0065052975749382 		Uiso   ? 		Ti 		2.07288
Ti 1.0  		0.8237328348571238 		0.5569732063990579  -0.004525424399957009 		Uiso   ? 		Ti 		2.07288
Ti 1.0  		0.34432729831421466 		0.16635587398174503  0.031112292749704434 		Uiso   ? 		Ti 		2.08794
Ti 1.0  		0.345351831911477 		0.6686132103248602  0.029698097624717867 		Uiso   ? 		Ti 		2.08794
Ti 1.0  		0.8450527523588832 		0.1678280498576897  0.03012235616221384 		Uiso   ? 		Ti 		2.08794
Ti 1.0  		0.8440245994006033 		0.6664049465109433  0.030688034212208466 		Uiso   ? 		Ti 		2.08794
Ti 1.0  		0.34000149767094273 		0.09225635489253117  -0.04115307813710904 		Uiso   ? 		Ti 		2.06627
Ti 1.0  		0.3426449398562405 		0.5964765924035725  -0.04285011228709292 		Uiso   ? 		Ti 		2.06627
Ti 1.0  		0.8406130695795785 		0.09520070664442046  -0.04256727326209561 		Uiso   ? 		Ti 		2.06627
Ti 1.0  		0.8419223085169232 		0.593777603297674  -0.042001595212100985 		Uiso   ? 		Ti 		2.06627
Ti 1.0  		0.25695119659651844 		0.11654725684561783  -0.004384004887458352 		Uiso   ? 		Ti 		2.07288
Ti 1.0  		0.25494160556719153 		0.6131612523309452  -0.006363878062439543 		Uiso   ? 		Ti 		2.07288
Ti 1.0  		0.7574224935005776 		0.1158111689076455  -0.007070975624932826 		Uiso   ? 		Ti 		2.07288
Ti 1.0  		0.7557152030570288 		0.6121798017469822  -0.00608103903744223 		Uiso   ? 		Ti 		2.07288
C 1.0  		0.3129534027821455 		0.28167631759740897  0.9207824458787526 		Uiso   ? 		C 		0.50878
C 1.0  		0.22664682902296418 		0.36362744135832764  0.7049762698058027 		Uiso   ? 		C 		0.50878
C 1.0  		0.4809260644126261 		0.6163509667288253  0.9172469580662861 		Uiso   ? 		C 		0.50878
C 1.0  		0.39241357613954875 		0.7002649916576701  0.7109158893307463 		Uiso   ? 		C 		0.50878
C 1.0  		0.6483927329078468 		0.9529885170281677  0.9093274653663613 		Uiso   ? 		C 		0.50878
C 1.0  		0.560164949974852 		1.033222102267151  0.6976224551558726 		Uiso   ? 		C 		0.50878
C 1.0  		0.8146602948978611 		0.2851113946412798  0.9221966410037391 		Uiso   ? 		C 		0.50878
C 1.0  		0.726285760483401 		0.3663264304642262  0.7113401478682423 		Uiso   ? 		C 		0.50878
C 1.0  		0.9817084595253114 		0.6170870546667976  0.9114487580538413 		Uiso   ? 		C 		0.50878
C 1.0  		0.8945366509770754 		0.7019825301796055  0.7095016942057598 		Uiso   ? 		C 		0.50878
C 1.0  		0.14584467772566112 		0.9512709785062322  0.9130043726913265 		Uiso   ? 		C 		0.50878
C 1.0  		1.0629254953293672 		1.0349396407890863  0.697481035643374 		Uiso   ? 		C 		0.50878
C 1.0  		0.3995955687834596 		1.0771420158994995  0.543899445069833 		Uiso   ? 		C 		0.50756
C 1.0  		0.756443262916501 		0.007606242025714006  0.7536245821053406 		Uiso   ? 		C 		0.50756
C 1.0  		0.5608684511507501 		0.4060751791147316  0.5317373669949484 		Uiso   ? 		C 		0.50756
C 1.0  		-0.06969411440115933 		0.3442437923250565  0.760836977242772 		Uiso   ? 		C 		0.50756
C 1.0  		0.7309090734365096 		0.7414859161841202  0.5450308011698223 		Uiso   ? 		C 		0.50756
C 1.0  		0.09258065839874469 		0.6747472764746295  0.7489577381928849 		Uiso   ? 		C 		0.50756
C 1.0  		0.901333009098648 		1.0746883894395918  0.5465864158073075 		Uiso   ? 		C 		0.50756
C 1.0  		0.2573936585278843 		0.007360879379723231  0.7582914260177963 		Uiso   ? 		C 		0.50756
C 1.0  		1.061151329605064 		0.40411227794680543  0.529898913332466 		Uiso   ? 		C 		0.50756
C 1.0  		0.42843099298442694 		0.3417901658651487  0.7580085869927989 		Uiso   ? 		C 		0.50756
C 1.0  		0.23058452801391566 		0.7412405535381293  0.5474349328822994 		Uiso   ? 		C 		0.50756
C 1.0  		0.5900682952673424 		0.6722936500147219  0.7503719333178714 		Uiso   ? 		C 		0.50756
C 1.0  		0.7254900464141392 		0.448032191579154  0.5856182012569366 		Uiso   ? 		C 		0.50649
C 1.0  		0.09449138174876334 		0.37810383747178333  0.7836055187550558 		Uiso   ? 		C 		0.50649
C 1.0  		0.8961352698714551 		0.782952203356561  0.5914164012693816 		Uiso   ? 		C 		0.50649
C 1.0  		0.2616710237579423 		0.7120423986652273  0.7940705626799563 		Uiso   ? 		C 		0.50649
C 1.0  		1.0623458907934527 		0.1158111689076455  0.5727490256195589 		Uiso   ? 		C 		0.50649
C 1.0  		0.4285279128197765 		0.046618902738247134  0.7930806260924657 		Uiso   ? 		C 		0.50649
C 1.0  		0.22531225247301045 		0.44680537834920014  0.5788300646570012 		Uiso   ? 		C 		0.50649
C 1.0  		0.5942770646906652 		0.37982137599371874  0.7861510699800316 		Uiso   ? 		C 		0.50649
C 1.0  		0.3911664888570842 		0.7768181372067917  0.5885880110194084 		Uiso   ? 		C 		0.50649
C 1.0  		0.7625191575614918 		0.7137599371871627  0.794636240729951 		Uiso   ? 		C 		0.50649
C 1.0  		0.5628143649921604 		0.11630189419962705  0.5716176695195696 		Uiso   ? 		C 		0.50649
C 1.0  		-0.07167395284393654 		0.046618902738247134  0.8012829578173879 		Uiso   ? 		C 		0.50649
C 1.0  		1.0302609300276284 		0.7027186181175779  0.6034370598317674 		Uiso   ? 		C 		0.50703
C 1.0  		0.6755815897622104 		0.7910491706742566  0.8239100798171728 		Uiso   ? 		C 		0.50703
C 1.0  		1.195863330417052 		1.0369025419570126  0.6158819769316491 		Uiso   ? 		C 		0.50703
C 1.0  		-0.15951842240055258 		0.12464422416331339  0.8323952505670923 		Uiso   ? 		C 		0.50703
C 1.0  		0.36315117474104186 		0.37442339778192174  0.6327108989189892 		Uiso   ? 		C 		0.50703
C 1.0  		0.006452017265513615 		0.45956423594072043  0.8297082798296178 		Uiso   ? 		C 		0.50703
C 1.0  		0.532414051505236 		0.7061536951614487  0.6030128012942714 		Uiso   ? 		C 		0.50703
C 1.0  		0.17867448234258482 		0.7942388850721367  0.8277284066546365 		Uiso   ? 		C 		0.50703
C 1.0  		0.6985224450299194 		1.0383747178329572  0.6182861086441263 		Uiso   ? 		C 		0.50703
C 1.0  		0.3466419657112352 		0.12636176268524882  0.8323952505670923 		Uiso   ? 		C 		0.50703
C 1.0  		0.8610637919542987 		0.371969771322014  0.6291754111065229 		Uiso   ? 		C 		0.50703
C 1.0  		0.5083626019307107 		0.46128177446265584  0.8241929188421703 		Uiso   ? 		C 		0.50703
C 1.0  		0.22919049425704172 		0.16684659927372658  0.6725912014436104 		Uiso   ? 		C 		0.51040
C 1.0  		0.18173566510776373 		0.088085189910688  0.853891016466888 		Uiso   ? 		C 		0.51040
C 1.0  		0.4029179857861154 		0.5049563254490136  0.6796621770685433 		Uiso   ? 		C 		0.51040
C 1.0  		0.34450995456603906 		0.4212876631661596  0.8700128408917349 		Uiso   ? 		C 		0.51040
C 1.0  		0.5644478824098863 		0.8322700952007067  0.6675000989936587 		Uiso   ? 		C 		0.51040
C 1.0  		0.5093850740250254 		0.7557169496515851  0.8626590262418047 		Uiso   ? 		C 		0.51040
C 1.0  		0.7313945818851691 		0.16660123662773582  0.6738639770560982 		Uiso   ? 		C 		0.51040
C 1.0  		0.6798542960164616 		0.09029345372460497  0.8572850847668558 		Uiso   ? 		C 		0.51040
C 1.0  		0.906364145102788 		0.5042202375110414  0.6799450160935405 		Uiso   ? 		C 		0.51040
C 1.0  		-0.1586339041648552 		0.4217783884581412  0.8742554262666946 		Uiso   ? 		C 		0.51040
C 1.0  		1.0644941989692862 		0.8315340072627343  0.664106030693691 		Uiso   ? 		C 		0.51040
C 1.0  		0.010254456845807947 		0.7574344881735205  0.8594063774543357 		Uiso   ? 		C 		0.51040
C 1.0  		0.3162185867487395 		0.33835508882127785  0.9261563873537015 		Uiso   ? 		C 		0.53684
C 1.0  		0.23367989502347322 		0.42104230052016883  0.6991780697933578 		Uiso   ? 		C 		0.53684
C 1.0  		0.48582543106699194 		0.672048287368731  0.9214895434412459 		Uiso   ? 		C 		0.53684
C 1.0  		0.39457464227621497 		0.754735499067622  0.7037034941933148 		Uiso   ? 		C 		0.53684
C 1.0  		0.653046740044451 		1.008195112376092  0.9142771483038143 		Uiso   ? 		C 		0.53684
C 1.0  		0.5657587282142227 		1.0881833349690844  0.6885716063559586 		Uiso   ? 		C 		0.53684
C 1.0  		0.8199189032060217 		0.3398272646972225  0.9308232312661572 		Uiso   ? 		C 		0.53684
C 1.0  		0.7320438854499327 		0.4237412896260674  0.7054005283432988 		Uiso   ? 		C 		0.53684
C 1.0  		0.9860360943535529 		0.6737658258906665  0.9154085044038036 		Uiso   ? 		C 		0.53684
C 1.0  		0.8968203968726225 		0.7566984002355482  0.7044105917558081 		Uiso   ? 		C 		0.53684
C 1.0  		0.14925661317372024 		1.0069682991461382  0.9145599873288116 		Uiso   ? 		C 		0.53684
C 1.0  		1.0680942932240791 		1.0899008734910198  0.6889958648934545 		Uiso   ? 		C 		0.53684
C 1.0  		0.4024065224209801 		0.13249582883501818  0.5429095084823423 		Uiso   ? 		C 		0.54090
C 1.0  		0.7578441787772978 		0.06183138678967515  0.7588571040677908 		Uiso   ? 		C 		0.54090
C 1.0  		0.5640678964264798 		0.46177249975463736  0.5400811182323693 		Uiso   ? 		C 		0.54090
C 1.0  		-0.06190089812478089 		0.4019040141328884  0.7632411089552492 		Uiso   ? 		C 		0.54090
C 1.0  		0.7321544401929934 		0.7949749730101091  0.5560615231447175 		Uiso   ? 		C 		0.54090
C 1.0  		0.09456210370851359 		0.729708509176563  0.7548973577178285 		Uiso   ? 		C 		0.54090
C 1.0  		0.902844949979607 		0.1312690156050643  0.5463035767823101 		Uiso   ? 		C 		0.54090
C 1.0  		0.2627508748723414 		0.06354892531161056  0.7642310455427398 		Uiso   ? 		C 		0.54090
C 1.0  		1.0664275331589204 		0.46226322504661893  0.530747430407458 		Uiso   ? 		C 		0.54090
C 1.0  		0.43363266022457103 		0.3972421238590637  0.7650795626177318 		Uiso   ? 		C 		0.54090
C 1.0  		0.23308076408179235 		0.7959564235940721  0.5545059085072321 		Uiso   ? 		C 		0.54090
C 1.0  		0.594240380991271 		0.7282363333006183  0.7512204503928634 		Uiso   ? 		C 		0.54090
C 1.0  		0.7319666546882604 		0.5034841495730691  0.5751531573320361 		Uiso   ? 		C 		0.53648
C 1.0  		0.10009395761098215 		0.4347826086956522  0.7795043528925947 		Uiso   ? 		C 		0.53648
C 1.0  		0.8965876170066371 		0.8357051722445776  0.581375615881977 		Uiso   ? 		C 		0.53648
C 1.0  		0.2669712990343829 		0.7689665325350868  0.7878481041300154 		Uiso   ? 		C 		0.53648
C 1.0  		1.0698608782066372 		0.1724899401315144  0.5631324987696503 		Uiso   ? 		C 		0.53648
C 1.0  		0.4308773974061879 		0.10231622337815291  0.785585391930037 		Uiso   ? 		C 		0.53648
C 1.0  		0.22923897867917736 		0.5022573363431152  0.5696377963445884 		Uiso   ? 		C 		0.53648
C 1.0  		0.5983834117237294 		0.4347826086956522  0.7804942894800854 		Uiso   ? 		C 		0.53648
C 1.0  		0.39597604509800144 		0.8327608204926883  0.5851939427194407 		Uiso   ? 		C 		0.53648
C 1.0  		0.7695762952845853 		0.76994798311905  0.7868581675425249 		Uiso   ? 		C 		0.53648
C 1.0  		0.5705418425776745 		0.17298066542349594  0.5624254012071569 		Uiso   ? 		C 		0.53648
C 1.0  		-0.07140122653565176 		0.09986259691824517  0.7912421724299832 		Uiso   ? 		C 		0.53648
C 1.0  		1.0343760746835406 		0.7593973893414467  0.6045684159317567 		Uiso   ? 		C 		0.53758
C 1.0  		0.6772278651407689 		0.8457650407301993  0.8325366700795909 		Uiso   ? 		C 		0.53758
C 1.0  		1.1989525129177663 		0.09323780547649427  0.6155991379066518 		Uiso   ? 		C 		0.53758
C 1.0  		-0.15510097715886226 		0.18107763274119149  0.8387591286295318 		Uiso   ? 		C 		0.53758
C 1.0  		0.36930141070680056 		0.43134753165178136  0.6287511525690268 		Uiso   ? 		C 		0.53758
C 1.0  		0.011662482128505486 		0.5167337324565708  0.8369206749670492 		Uiso   ? 		C 		0.53758
C 1.0  		0.53567923547183 		0.7628324663853175  0.6049926744692525 		Uiso   ? 		C 		0.53758
C 1.0  		0.18123645710132577 		0.8499362057120424  0.8331023481295855 		Uiso   ? 		C 		0.53758
C 1.0  		0.7003607582192409 		0.09348316812248504  0.6181446891316277 		Uiso   ? 		C 		0.53758
C 1.0  		0.3519991820556923 		0.18254980861713613  0.8387591286295318 		Uiso   ? 		C 		0.53758
C 1.0  		0.8665196163350524 		0.4296299931298459  0.6287511525690268 		Uiso   ? 		C 		0.53758
C 1.0  		0.514683661100519 		0.5159976445185985  0.8359307383795586 		Uiso   ? 		C 		0.53758
C 1.0  		0.23351812908528333 		0.22352537049759547  0.6752781721810849 		Uiso   ? 		C 		0.54209
C 1.0  		0.1839143264901258 		0.14599077436451074  0.8541738554918854 		Uiso   ? 		C 		0.54209
C 1.0  		0.4101066008909374 		0.5631072725488272  0.6822077282935191 		Uiso   ? 		C 		0.54209
C 1.0  		0.34846955011763814 		0.4772303464520562  0.8643560603917887 		Uiso   ? 		C 		0.54209
C 1.0  		0.5686199681338149 		0.8882127784866033  0.6714598453436211 		Uiso   ? 		C 		0.54209
C 1.0  		0.5142603689568069 		0.8126410835214447  1.8566967795948615 		Uiso   ? 		C 		0.54209
C 1.0  		0.7355666676090977 		0.22254391991363237  0.677258045356066 		Uiso   ? 		C 		0.54209
C 1.0  		0.6863397019134306 		0.1474629502404554  1.8548583259323788 		Uiso   ? 		C 		0.54209
C 1.0  		0.9111167602756887 		0.5608990087349103  0.6807935331685325 		Uiso   ? 		C 		0.54209
C 1.0  		-0.15382434792393804 		0.4777210717440377  0.8654874164917779 		Uiso   ? 		C 		0.54209
C 1.0  		1.068396853452869 		0.8882127784866033  0.6675000989936587 		Uiso   ? 		C 		0.54209
C 1.0  		0.015668614258281532 		0.8128864461674356  0.8517697237794082 		Uiso   ? 		C 		0.54209
C 1.0  		0.4213090904924487 		0.33222102267150855  0.9139943092788171 		Uiso   ? 		C 		0.55768
C 1.0  		0.33159387635314697 		0.41245460791049177  0.7246335820431159 		Uiso   ? 		C 		0.55768
C 1.0  		0.5838949615009787 		0.6641966826970263  0.896316870216485 		Uiso   ? 		C 		0.55768
C 1.0  		0.5003924269503613 		0.7483560702718618  0.7045520112683068 		Uiso   ? 		C 		0.55768
C 1.0  		0.7573025571985785 		0.9991166944744333  0.9070647531663829 		Uiso   ? 		C 		0.55768
C 1.0  		0.6693705983744731 		1.0837668073412503  0.7096431137182584 		Uiso   ? 		C 		0.55768
C 1.0  		0.9221900936414303 		0.33442928648542547  0.9165398605037929 		Uiso   ? 		C 		0.55768
C 1.0  		0.8334146506048955 		0.41441750907841796  0.7199667381306604 		Uiso   ? 		C 		0.55768
C 1.0  		0.09085434415156476 		0.6695946609088234  0.9035292653539165 		Uiso   ? 		C 		0.55768
C 1.0  		1.001812292580035 		0.7490921582098342  0.6997437478433525 		Uiso   ? 		C 		0.55768
C 1.0  		0.2547151561940721 		1.001570320934341  0.9108830800038467 		Uiso   ? 		C 		0.55768
C 1.0  		0.17050941243560164 		1.0847482579252137  0.7093602746932611 		Uiso   ? 		C 		0.55768
C 1.0  		0.5021519025110188 		0.12587103739326727  0.5224036791700372 		Uiso   ? 		C 		0.55998
C 1.0  		-0.1353594211828602 		0.058641672391795074  0.7507961918553675 		Uiso   ? 		C 		0.55998
C 1.0  		0.6685450013757845 		0.45441162037491417  0.5372527279823961 		Uiso   ? 		C 		0.55998
C 1.0  		0.03351134458210711 		0.39086269506330357  0.7397654698804722 		Uiso   ? 		C 		0.55998
C 1.0  		0.8400818524906987 		0.7915398959662382  0.5470106743448034 		Uiso   ? 		C 		0.55998
C 1.0  		0.20189371245751037 		0.7284816959466092  0.7424524406179467 		Uiso   ? 		C 		0.55998
C 1.0  		1.0019111925843769 		0.12243596034939641  0.5225450986825358 		Uiso   ? 		C 		0.55998
C 1.0  		0.36530677064783257 		0.054470507409951914  0.7496648357553782 		Uiso   ? 		C 		0.55998
C 1.0  		1.1709527815533938 		0.452448719206988  0.5308888499199566 		Uiso   ? 		C 		0.55998
C 1.0  		0.5326748311067568 		0.38963588183334974  0.7394826308554749 		Uiso   ? 		C 		0.55998
C 1.0  		0.3395207451731909 		0.7925213465502012  0.5419195718948517 		Uiso   ? 		C 		0.55998
C 1.0  		0.699714198111359 		0.7198940033369321  0.7498062552678768 		Uiso   ? 		C 		0.55998
C 1.0  		0.8342202498779735 		0.4946510943174012  0.5874566549194191 		Uiso   ? 		C 		0.55880
C 1.0  		0.2035326834212237 		0.42619491608597515  0.7920906895049752 		Uiso   ? 		C 		0.55880
C 1.0  		0.9978926434707354 		0.825399941112965  0.5693549573195911 		Uiso   ? 		C 		0.55880
C 1.0  		0.3701317959814306 		0.7593973893414467  0.7949190797549484 		Uiso   ? 		C 		0.55880
C 1.0  		1.1694900550146836 		0.160957895769948  0.5775572890445132 		Uiso   ? 		C 		0.55880
C 1.0  		0.5373567243199073 		0.09470998135243891  0.7862924894925302 		Uiso   ? 		C 		0.55880
C 1.0  		0.33506556097617163 		0.49759544606929046  0.5834969085694568 		Uiso   ? 		C 		0.55880
C 1.0  		0.7011934646398303 		0.42791245460791055  0.7932220456049645 		Uiso   ? 		C 		0.55880
C 1.0  		0.4982296402877144 		0.8239277652370204  0.5738803817195481 		Uiso   ? 		C 		0.55880
C 1.0  		-0.12876225930287316 		0.7598881146334283  0.7971817919549268 		Uiso   ? 		C 		0.55880
C 1.0  		0.670212686354001 		0.16365688487584654  0.5810927768569796 		Uiso   ? 		C 		0.55880
C 1.0  		0.034449427483926834 		0.09397389341446659  0.7854439724175384 		Uiso   ? 		C 		0.55880
C 1.0  		1.1386494870833637 		0.7537540484836589  0.6148920403441586 		Uiso   ? 		C 		0.55875
C 1.0  		-0.21683449313155512 		0.8408577878103838  0.8305567969046097 		Uiso   ? 		C 		0.55875
C 1.0  		0.3039050972133778 		1.0872018843851212  0.6283268940315309 		Uiso   ? 		C 		0.55875
C 1.0  		-0.04995353234713665 		0.1742074786534498  0.8301325383671138 		Uiso   ? 		C 		0.55875
C 1.0  		0.4711452996515909 		0.41957012464422416  0.6195588842566142 		Uiso   ? 		C 		0.55875
C 1.0  		0.11540350852452516 		0.5079006772009029  0.822637304204685 		Uiso   ? 		C 		0.55875
C 1.0  		0.6356195104885025 		0.7527725978996959  0.6250742452440617 		Uiso   ? 		C 		0.55875
C 1.0  		0.2869074902940071 		0.8445382275002454  0.8336680261795801 		Uiso   ? 		C 		0.55875
C 1.0  		0.8051782113615864 		1.0889194229070567  0.630306767206512 		Uiso   ? 		C 		0.55875
C 1.0  		0.455470777211366 		0.17445284129944058  0.8264556310421487 		Uiso   ? 		C 		0.55875
C 1.0  		0.9710536623523736 		0.4215330258121504  0.6238014696315738 		Uiso   ? 		C 		0.55875
C 1.0  		0.6177302759115335 		0.5079006772009029  0.823061562742181 		Uiso   ? 		C 		0.55875
C 1.0  		0.33788782837544373 		0.21297477671999215  0.6673586794811601 		Uiso   ? 		C 		0.55812
C 1.0  		0.28380645806162963 		0.13838453233879675  0.8753867823666839 		Uiso   ? 		C 		0.55812
C 1.0  		0.506000765010501 		0.5513298655412701  0.6553380209187744 		Uiso   ? 		C 		0.55812
C 1.0  		0.45416465503290365 		0.47060555501030527  0.8715684555292201 		Uiso   ? 		C 		0.55812
C 1.0  		0.6748715307754682 		0.8835508882127786  0.6598634453187313 		Uiso   ? 		C 		0.55812
C 1.0  		0.6197758530451751 		0.8065070173716754  0.8691643238167429 		Uiso   ? 		C 		0.55812
C 1.0  		0.840100713626419 		0.21444695259593682  0.6721669429061145 		Uiso   ? 		C 		0.55812
C 1.0  		-0.21481816598232803 		0.13813916969280596  0.8755282018791825 		Uiso   ? 		C 		0.55812
C 1.0  		1.0064632642917122 		0.5488762390813623  0.6546309233562809 		Uiso   ? 		C 		0.55812
C 1.0  		-0.04853662810763573 		0.47453135734615765  0.8806193043291342 		Uiso   ? 		C 		0.55812
C 1.0  		0.17357434490467544 		0.883060162920797  0.6580249916562487 		Uiso   ? 		C 		0.55812
C 1.0  		0.11792220944799447 		0.8040533909117676  0.8664773530792684 		Uiso   ? 		C 		0.55812
C 1.0  		0.36413066496812996 		0.28118559230542745  0.9087617873163668 		Uiso   ? 		C 		0.50009
C 1.0  		0.2751339341364177 		0.3594562763764845  0.7191182210556684 		Uiso   ? 		C 		0.50009
C 1.0  		0.5291766076311657 		0.6134066149769359  0.9018322312039325 		Uiso   ? 		C 		0.50009
C 1.0  		0.4449708638726954 		0.6965845519678084  0.7111987283557436 		Uiso   ? 		C 		0.50009
C 1.0  		0.7002796807785728 		0.9488173520463246  0.901690811691434 		Uiso   ? 		C 		0.50009
C 1.0  		0.6109741728841938 		1.031995289037197  0.7100673722557543 		Uiso   ? 		C 		0.50009
C 1.0  		0.8659931061881585 		0.2853567572872706  0.9087617873163668 		Uiso   ? 		C 		0.50009
C 1.0  		0.7764158459074741 		0.36289135342035533  0.7212395137431482 		Uiso   ? 		C 		0.50009
C 1.0  		1.0344541657082034 		0.6146334282068898  0.9045192019414071 		Uiso   ? 		C 		0.50009
C 1.0  		0.9465791479521144 		0.6985474531357346  0.7083703381057705 		Uiso   ? 		C 		0.50009
C 1.0  		0.19877880235829826 		0.9500441652762784  0.9064990751163883 		Uiso   ? 		C 		0.50009
C 1.0  		1.1136032408569803 		1.0317499263912062  0.7092188551807624 		Uiso   ? 		C 		0.50009
C 1.0  		0.4479928634834644 		1.0732162135636472  0.5303231718699619 		Uiso   ? 		C 		0.50153
C 1.0  		-0.190634232779061 		0.005888703503778585  0.7482506406303917 		Uiso   ? 		C 		0.50153
C 1.0  		0.6121420002270718 		0.40067720090293457  0.5337172401699297 		Uiso   ? 		C 		0.50153
C 1.0  		-0.02084776763391119 		0.33909117675925016  0.7488163186803862 		Uiso   ? 		C 		0.50153
C 1.0  		0.7840228188960441 		0.7397683776621848  0.5396568596948732 		Uiso   ? 		C 		0.50153
C 1.0  		0.14540090089534882 		0.6749926391206204  0.7401897284179683 		Uiso   ? 		C 		0.50153
C 1.0  		0.9494280032128746 		1.0710079497497302  0.5321616255324445 		Uiso   ? 		C 		0.50153
C 1.0  		0.30873294629507037 		0.0029443517518892926  0.7506547723428688 		Uiso   ? 		C 		0.50153
C 1.0  		1.1128915259943246 		0.4009225635489253  0.5280604596699834 		Uiso   ? 		C 		0.50153
C 1.0  		0.4784055293041871 		0.33761900088330554  0.747260704042901 		Uiso   ? 		C 		0.50153
C 1.0  		0.28321635206077467 		0.7402591029541663  0.5373941474948948 		Uiso   ? 		C 		0.50153
C 1.0  		0.6425927136550569 		0.6681224850328786  0.7479678016053942 		Uiso   ? 		C 		0.50153
C 1.0  		0.7770177526310704 		0.44484247718127395  0.5933962744443627 		Uiso   ? 		C 		0.50060
C 1.0  		0.14662368913725105 		0.37442339778192174  0.7909593334049859 		Uiso   ? 		C 		0.50060
C 1.0  		0.9473190085343279 		0.7777995877907548  0.5850525232069419 		Uiso   ? 		C 		0.50060
C 1.0  		0.3130760502159927 		0.7086073216213564  0.8008586992798918 		Uiso   ? 		C 		0.50060
C 1.0  		1.1120093289045867 		0.1101678280498577  0.5792543231944971 		Uiso   ? 		C 		0.50060
C 1.0  		0.48066022020826416 		0.042938463048385514  0.7908179138924872 		Uiso   ? 		C 		0.50060
C 1.0  		0.27739641641632956 		0.4455785651192463  0.5878809134569152 		Uiso   ? 		C 		0.50060
C 1.0  		0.6454696009763862 		0.37638629894984793  0.7930806260924657 		Uiso   ? 		C 		0.50060
C 1.0  		0.4443941164526517 		0.7736284228089116  0.5849111036944433 		Uiso   ? 		C 		0.50060
C 1.0  		-0.18675777617107775 		0.7093434095593287  0.8018486358673824 		Uiso   ? 		C 		0.50060
C 1.0  		0.6125194700715746 		0.11286681715575622  0.5834969085694568 		Uiso   ? 		C 		0.50060
C 1.0  		-0.01969719455976193 		0.04220237511041319  0.7959090163424389 		Uiso   ? 		C 		0.50060
C 1.0  		1.0811840350730033 		0.7000196290116794  0.6131950061941747 		Uiso   ? 		C 		0.50610
C 1.0  		-0.2726000237632793 		0.7871233683384042  0.8256071139671568 		Uiso   ? 		C 		0.50610
C 1.0  		0.24795994575475622 		1.0339581902051234  0.6238014696315738 		Uiso   ? 		C 		0.50610
C 1.0  		-0.1067727162176606 		0.12219059770340564  0.8287183432421272 		Uiso   ? 		C 		0.50610
C 1.0  		0.4147270244031417 		0.36878005692413385  0.6287511525690268 		Uiso   ? 		C 		0.50610
C 1.0  		0.05673765179389989 		0.45686524683482194  0.8191018163922186 		Uiso   ? 		C 		0.50610
C 1.0  		0.58262514971991 		0.7007557169496517  0.613477845219172 		Uiso   ? 		C 		0.50610
C 1.0  		0.23156694000694186 		0.7908038080282658  0.8292840212921218 		Uiso   ? 		C 		0.50610
C 1.0  		0.7494455500752943 		1.0356757287270586  0.627054118419043 		Uiso   ? 		C 		0.50610
C 1.0  		0.3986187239954098 		0.12194523505741486  0.82631421152965 		Uiso   ? 		C 		0.50610
C 1.0  		0.9160570796193667 		0.369761507508097  0.6332765769689839 		Uiso   ? 		C 		0.50610
C 1.0  		0.5607643405595445 		0.45686524683482194  0.8200917529797092 		Uiso   ? 		C 		0.50610
C 1.0  		0.28065246178310854 		0.16267543429188341  0.6690557136311439 		Uiso   ? 		C 		0.50187
C 1.0  		0.23104865918795103 		0.0851408381587987  0.8670430311292632 		Uiso   ? 		C 		0.50187
C 1.0  		0.4495167510711874 		0.49955834723721665  0.664106030693691 		Uiso   ? 		C 		0.50187
C 1.0  		0.39722279140349886 		0.41834331141427034  0.8739725872416972 		Uiso   ? 		C 		0.50187
C 1.0  		0.6176843076283017 		0.8307979193247621  0.6598634453187313 		Uiso   ? 		C 		0.50187
C 1.0  		0.5631691593469808 		0.7544901364216313  0.8702956799167322 		Uiso   ? 		C 		0.50187
C 1.0  		0.7829792291701169 		0.16267543429188341  0.6676415185061574 		Uiso   ? 		C 		0.50187
C 1.0  		0.7286437017156933 		0.08587692609677103  0.8704370994292309 		Uiso   ? 		C 		0.50187
C 1.0  		0.9550220734202908 		0.4978408087152812  0.6670758404561627 		Uiso   ? 		C 		0.50187
C 1.0  		-0.10556830215048929 		0.4225144763961135  0.8838719531166033 		Uiso   ? 		C 		0.50187
C 1.0  		1.1180000554280478 		0.8293257434488174  0.660429123368726 		Uiso   ? 		C 		0.50187
C 1.0  		0.06280294695610672 		0.7520365099617234  0.863790382341794 		Uiso   ? 		C 		0.50187
C 1.0  		0.3097627551292638 		0.22769653547943863  0.9100345629288547 		Uiso   ? 		C 		0.55512
C 1.0  		0.21976931212676817 		0.3069486701344587  0.7109158893307463 		Uiso   ? 		C 		0.55512
C 1.0  		0.4739587371029815 		0.5599175581509471  0.9077718507288761 		Uiso   ? 		C 		0.55512
C 1.0  		0.39082424182900666 		0.6448130336637551  0.7182697039806765 		Uiso   ? 		C 		0.55512
C 1.0  		0.6456423396993607 		0.896064383158308  0.9043777824289083 		Uiso   ? 		C 		0.55512
C 1.0  		0.5546281128034974 		0.9775247816272451  0.7083703381057705 		Uiso   ? 		C 		0.55512
C 1.0  		0.8090183732133215 		0.2326037883992541  0.9077718507288761 		Uiso   ? 		C 		0.55512
C 1.0  		0.7220808054140401 		0.30989302188634804  0.7154413137307033 		Uiso   ? 		C 		0.55512
C 1.0  		0.9780840339049226 		0.5613897340268917  0.9097517239038574 		Uiso   ? 		C 		0.55512
C 1.0  		0.8927107547716195 		0.6477573854156444  0.7155827332432019 		Uiso   ? 		C 		0.55512
C 1.0  		0.1430702127945906 		0.8955736578663265  0.9048020409664044 		Uiso   ? 		C 		0.55512
C 1.0  		1.0579932593295691 		0.978751594857199  0.7058247868807946 		Uiso   ? 		C 		0.55512
C 1.0  		0.39523506460978586 		1.019972519383649  0.5409296353073612 		Uiso   ? 		C 		0.55064
C 1.0  		0.75388128815776 		-0.04809107861419178  0.7478263820928956 		Uiso   ? 		C 		0.55064
C 1.0  		0.558004175806231 		0.3506232211208166  0.5238178742950238 		Uiso   ? 		C 		0.55064
C 1.0  		-0.07890902319298015 		0.28756502110118753  0.751786128442858 		Uiso   ? 		C 		0.55064
C 1.0  		0.7285595888500981 		0.6857885955442143  0.5362627913949055 		Uiso   ? 		C 		0.55064
C 1.0  		0.08896503040120385 		0.6207674943566591  0.7389169528054802 		Uiso   ? 		C 		0.55064
C 1.0  		0.8962452239945369 		1.0177642555697322  0.5407882157948625 		Uiso   ? 		C 		0.55064
C 1.0  		0.25256003056438286 		-0.047354990676219455  0.747260704042901 		Uiso   ? 		C 		0.55064
C 1.0  		1.0578467998161494 		0.3516046717047797  0.5177368352575815 		Uiso   ? 		C 		0.55064
C 1.0  		0.420580835640032 		0.2848660319952891  0.7490991577053835 		Uiso   ? 		C 		0.55064
C 1.0  		0.2258166387412786 		0.6875061340661498  0.5349900157824176 		Uiso   ? 		C 		0.55064
C 1.0  		0.586051758647727 		0.6170870546667976  0.7437252162304346 		Uiso   ? 		C 		0.55064
C 1.0  		0.7204022613100282 		0.3911080577092944  0.5936791134693601 		Uiso   ? 		C 		0.55419
C 1.0  		0.08794023716092984 		0.31995289037196983  0.7871410065675222 		Uiso   ? 		C 		0.55419
C 1.0  		0.8926247263870993 		0.7257827068407107  0.5946690500568507 		Uiso   ? 		C 		0.55419
C 1.0  		0.2570739576893547 		0.6560997153793307  0.802838572454873 		Uiso   ? 		C 		0.55419
C 1.0  		1.055611506017704 		1.0589851800961823  0.5798200012444916 		Uiso   ? 		C 		0.55419
C 1.0  		0.425908996993019 		-0.00834232996368633  0.7998687626924013 		Uiso   ? 		C 		0.55419
C 1.0  		0.22157394471658884 		0.392580233585239  0.5888708500444056 		Uiso   ? 		C 		0.55419
C 1.0  		0.5892221489319863 		0.32338796741584064  0.7937877236549591 		Uiso   ? 		C 		0.55419
C 1.0  		0.38832628523514934 		0.7201393659829228  0.5915578207818802 		Uiso   ? 		C 		0.55419
C 1.0  		0.7560666210099549 		0.6570811659632938  0.8026971529423744 		Uiso   ? 		C 		0.55419
C 1.0  		0.5575345420772864 		1.0589851800961823  0.5768501914820199 		Uiso   ? 		C 		0.55419
C 1.0  		-0.07448128712043928 		-0.009569143193640202  0.8052427041673502 		Uiso   ? 		C 		0.55419
C 1.0  		1.0263013344760294 		0.6467759348316813  0.6078210647192257 		Uiso   ? 		C 		0.55459
C 1.0  		0.6728071248311398 		0.7353518500343508  0.8186775578547225 		Uiso   ? 		C 		0.55459
C 1.0  		1.1922958458646797 		0.9804691333791344  0.6225286940190861 		Uiso   ? 		C 		0.55459
C 1.0  		-0.16177809657351536 		0.06870154087741684  0.8288597627546258 		Uiso   ? 		C 		0.55459
C 1.0  		0.3576055399468395 		0.3170085386200805  0.630306767206512 		Uiso   ? 		C 		0.55459
C 1.0  		-5.192860233205199e-07 		0.4028854647168515  0.822637304204685 		Uiso   ? 		C 		0.55459
C 1.0  		0.5264193646437904 		0.6499656492295613  0.608528162281719 		Uiso   ? 		C 		0.55459
C 1.0  		0.17535235730797435 		0.7382962017862401  0.8237686603046742 		Uiso   ? 		C 		0.55459
C 1.0  		0.6943262875834066 		0.9836588477770146  0.6218215964565927 		Uiso   ? 		C 		0.55459
C 1.0  		0.3433439123992091 		0.06919226616939837  0.827162728604642 		Uiso   ? 		C 		0.55459
C 1.0  		0.8588129154041837 		0.3177446265580528  0.6358221281939598 		Uiso   ? 		C 		0.55459
C 1.0  		0.5048849277917873 		0.40460300323878695  0.8195260749297145 		Uiso   ? 		C 		0.55459
C 1.0  		0.22443425972312325 		1.1110020610462263  0.6662273233811709 		Uiso   ? 		C 		0.55496
C 1.0  		0.17547154700597206 		0.032633231916772996  0.8657702555167752 		Uiso   ? 		C 		0.55496
C 1.0  		0.39443035792473186 		0.448032191579154  0.6725912014436104 		Uiso   ? 		C 		0.55496
C 1.0  		0.34055035901444003 		0.3653449798802631  0.877790914079161 		Uiso   ? 		C 		0.55496
C 1.0  		0.5604072740676865 		0.7782903130827364  0.6568936355562595 		Uiso   ? 		C 		0.55496
C 1.0  		0.5069786483705974 		0.7007557169496517  0.872416972604212 		Uiso   ? 		C 		0.55496
C 1.0  		0.7280600398666931 		1.1097752478162726  0.6670758404561627 		Uiso   ? 		C 		0.55496
C 1.0  		0.6728540993613847 		0.03336931985474532  0.8656288360042766 		Uiso   ? 		C 		0.55496
C 1.0  		0.8984811184129607 		0.44680537834920014  0.6732982990061037 		Uiso   ? 		C 		0.55496
C 1.0  		-0.16121995064618047 		0.3673078810481893  0.8820334994541207 		Uiso   ? 		C 		0.55496
C 1.0  		1.061360492384421 		0.7768181372067917  0.6551966014062757 		Uiso   ? 		C 		0.55496
C 1.0  		0.006540220811970587 		0.7019825301796055  0.8680329677167536 		Uiso   ? 		C 		0.55496
C 1.0  		0.47989614191944363 		0.27897732849151047  0.9114487580538413 		Uiso   ? 		C 		0.50365
C 1.0  		0.3897976144037629 		0.36141917754441066  0.7082289185932719 		Uiso   ? 		C 		0.50365
C 1.0  		0.6438138950299674 		0.6102169005790559  0.9049434604789031 		Uiso   ? 		C 		0.50365
C 1.0  		0.5603946944159102 		0.6987928157817254  0.6952183234433955 		Uiso   ? 		C 		0.50365
C 1.0  		0.8162817196248003 		0.9453822750024538  0.9224794800287364 		Uiso   ? 		C 		0.50365
C 1.0  		0.7285381792504403 		1.0312592010992248  0.7022892990683283 		Uiso   ? 		C 		0.50365
C 1.0  		0.9795832168250489 		0.2792226911375012  0.9178126361162808 		Uiso   ? 		C 		0.50365
C 1.0  		0.8906850940296331 		0.35896555108450295  0.715158474705706 		Uiso   ? 		C 		0.50365
C 1.0  		0.14855856554380936 		0.6158602414368437  0.9063576556038896 		Uiso   ? 		C 		0.50365
C 1.0  		1.0629251543524 		0.6970752772597901  0.6938041283184089 		Uiso   ? 		C 		0.50365
C 1.0  		0.3131137891713217 		0.9470998135243891  0.925166450766211 		Uiso   ? 		C 		0.50365
C 1.0  		0.229276084689494 		1.031013838453234  0.7100673722557543 		Uiso   ? 		C 		0.50365
C 1.0  		0.5601788768506082 		1.0714986750417117  0.5248078108825143 		Uiso   ? 		C 		0.50726
C 1.0  		-0.08024674882684998 		0.002698989105898518  0.7520689674678553 		Uiso   ? 		C 		0.50726
C 1.0  		0.7272394584619241 		0.40435764059279616  0.5441822840948303 		Uiso   ? 		C 		0.50726
C 1.0  		0.08893511514674345 		0.33639218765335166  0.7355228845055125 		Uiso   ? 		C 		0.50726
C 1.0  		0.9000753223333996 		0.7402591029541663  0.5413538938448571 		Uiso   ? 		C 		0.50726
C 1.0  		0.25705452825868913 		0.6700853862008048  0.7499476747803755 		Uiso   ? 		C 		0.50726
C 1.0  		1.0618353043751958 		1.0710079497497302  0.5300403328449647 		Uiso   ? 		C 		0.50726
C 1.0  		0.42535718155855 		0.002453626459907744  0.7489577381928849 		Uiso   ? 		C 		0.50726
C 1.0  		0.22905508886236187 		0.40116792619491615  0.5399396987198706 		Uiso   ? 		C 		0.50726
C 1.0  		0.589029575151312 		0.33320247325547164  0.7430181186679413 		Uiso   ? 		C 		0.50726
C 1.0  		0.4024409339833367 		0.7436941799980372  0.5410710548198598 		Uiso   ? 		C 		0.50726
C 1.0  		0.7575980403305012 		0.665668858572971  0.75263464551785 		Uiso   ? 		C 		0.50726
C 1.0  		0.893175340581611 		0.44214348807537546  0.5816584549069743 		Uiso   ? 		C 		0.50394
C 1.0  		0.26557883981946695 		0.37859456276376485  0.7844540358300477 		Uiso   ? 		C 		0.50394
C 1.0  		1.0640001848658243 		0.776572774560801  0.5535159719197417 		Uiso   ? 		C 		0.50394
C 1.0  		0.42800036410083614 		0.708116596329375  0.7889794602300046 		Uiso   ? 		C 		0.50394
C 1.0  		0.22983994380582792 		0.10992246540386692  0.5711934109820737 		Uiso   ? 		C 		0.50394
C 1.0  		0.5941781156774016 		0.04048483658847778  0.7754031870301337 		Uiso   ? 		C 		0.50394
C 1.0  		0.3941345338158422 		0.4436156639513201  0.5792543231944971 		Uiso   ? 		C 		0.50394
C 1.0  		0.7626590915891014 		0.37957601334772795  0.7841711968050504 		Uiso   ? 		C 		0.50394
C 1.0  		0.5641992278241859 		0.7777995877907548  0.5573342987572053 		Uiso   ? 		C 		0.50394
C 1.0  		-0.06998678942613301 		0.707871233683384  0.7844540358300477 		Uiso   ? 		C 		0.50394
C 1.0  		0.7300265353698046 		0.11286681715575622  0.5703448939070818 		Uiso   ? 		C 		0.50394
C 1.0  		0.09548127646569109 		0.043919913632348616  0.7742718309301444 		Uiso   ? 		C 		0.50394
C 1.0  		1.1964851858573373 		0.7019825301796055  0.6286097330565282 		Uiso   ? 		C 		0.50580
C 1.0  		-0.15339951356330161 		0.7917852586122289  0.8424360359544969 		Uiso   ? 		C 		0.50580
C 1.0  		0.36505962595402286 		1.037393267248994  0.6310138647690053 		Uiso   ? 		C 		0.50580
C 1.0  		0.014732316532509733 		0.12636176268524882  0.8347993822795694 		Uiso   ? 		C 		0.50580
C 1.0  		0.5298550308374668 		0.3665717931102169  0.6204074013316061 		Uiso   ? 		C 		0.50580
C 1.0  		0.1764594292288738 		0.45661988418883115  0.8308396359296071 		Uiso   ? 		C 		0.50580
C 1.0  		0.6942723006063618 		0.7005103543036608  0.632428059893992 		Uiso   ? 		C 		0.50580
C 1.0  		0.3489448490694025 		0.7952203356560998  0.8421531969294995 		Uiso   ? 		C 		0.50580
C 1.0  		0.8657762823758437 		1.0371479046030034  0.635256450143965 		Uiso   ? 		C 		0.50580
C 1.0  		0.5176965544365066 		0.12636176268524882  0.8355064798420627 		Uiso   ? 		C 		0.50580
C 1.0  		1.0297874652608339 		0.3673078810481893  0.6189932062066196 		Uiso   ? 		C 		0.50580
C 1.0  		0.67626918389336 		0.45711060948081267  0.8350822213045668 		Uiso   ? 		C 		0.50580
C 1.0  		0.39872246128461486 		0.15997644518598492  0.6635403526436964 		Uiso   ? 		C 		0.50603
C 1.0  		0.34361150945458535 		0.08587692609677103  0.8743968457791932 		Uiso   ? 		C 		0.50603
C 1.0  		0.5625920709499701 		0.4936696437334381  0.6546309233562809 		Uiso   ? 		C 		0.50603
C 1.0  		0.5101360857010799 		0.41638041024634415  0.8684572262542497 		Uiso   ? 		C 		0.50603
C 1.0  		0.7323063209273669 		0.8305525566787713  0.6679243575311548 		Uiso   ? 		C 		0.50603
C 1.0  		0.6779707934729433 		0.7537540484836589  0.8691643238167429 		Uiso   ? 		C 		0.50603
C 1.0  		0.8958179871539856 		0.1580135440180587  0.6621261575187098 		Uiso   ? 		C 		0.50603
C 1.0  		-0.1592805132816587 		0.08219648640690942  0.8763767189541745 		Uiso   ? 		C 		0.50603
C 1.0  		1.0640119365796437 		0.49440573167141044  0.6544895038437823 		Uiso   ? 		C 		0.50603
C 1.0  		0.008422717108475891 		0.417607223476298  0.8763767189541745 		Uiso   ? 		C 		0.50603
C 1.0  		0.2318174287776121 		0.8278535675728728  0.6622675770312084 		Uiso   ? 		C 		0.50603
C 1.0  		0.17465379039204018 		0.7500736087937973  0.8711441969917242 		Uiso   ? 		C 		0.50603
C 1.0  		0.47680189481588814 		0.33271174796349007  0.910741660491348 		Uiso   ? 		C 		0.55758
C 1.0  		0.3865061512276143 		0.4122092452645009  0.7191182210556684 		Uiso   ? 		C 		0.55758
C 1.0  		0.6403844779952015 		0.6637059574050447  0.9002766165664473 		Uiso   ? 		C 		0.55758
C 1.0  		0.5556727411014712 		0.7488467955638435  0.7029963966308216 		Uiso   ? 		C 		0.55758
C 1.0  		0.8110121062068214 		0.9951908921385809  0.9124386946413319 		Uiso   ? 		C 		0.55758
C 1.0  		0.7248634026979125 		1.084257532633232  0.7093602746932611 		Uiso   ? 		C 		0.55758
C 1.0  		0.9770366298250334 		0.33320247325547164  0.9226208995412352 		Uiso   ? 		C 		0.55758
C 1.0  		0.8886532977877252 		0.4126999705564825  0.7196838991056631 		Uiso   ? 		C 		0.55758
C 1.0  		0.1460119785437938 		0.6698400235548141  0.9067819141413855 		Uiso   ? 		C 		0.55758
C 1.0  		1.056503279659325 		0.747129257041908  0.7004508454058458 		Uiso   ? 		C 		0.55758
C 1.0  		0.3082779537208499 		0.9986259691824518  0.9141357287913158 		Uiso   ? 		C 		0.55758
C 1.0  		0.22520039951489168 		1.0827853567572874  0.715158474705706 		Uiso   ? 		C 		0.55758
C 1.0  		0.5564179092456496 		0.12390813622534107  0.5205652255075547 		Uiso   ? 		C 		0.55866
C 1.0  		-0.08258084565453605 		0.056678771223868885  0.748533479655389 		Uiso   ? 		C 		0.55866
C 1.0  		0.7236456946999972 		0.45539307095887727  0.5362627913949055 		Uiso   ? 		C 		0.55866
C 1.0  		0.08611029928353389 		0.38939051918735895  0.7345329479180219 		Uiso   ? 		C 		0.55866
C 1.0  		0.8939645458489505 		0.7917852586122289  0.5383840840823854 		Uiso   ? 		C 		0.55866
C 1.0  		0.25456488232669006 		0.7233290803808029  0.7428766991554427 		Uiso   ? 		C 		0.55866
C 1.0  		1.057191506735487 		0.12292668564137797  0.5256563279575063 		Uiso   ? 		C 		0.55866
C 1.0  		0.41786405838097934 		0.050790067720090294  0.7396240503679736 		Uiso   ? 		C 		0.55866
C 1.0  		0.22537151468698635 		0.452448719206988  0.5308888499199566 		Uiso   ? 		C 		0.55866
C 1.0  		0.586417249460432 		0.3862008047894789  0.7360885625555071 		Uiso   ? 		C 		0.55866
C 1.0  		0.3937955495306697 		0.7922759839042105  0.534000079194927 		Uiso   ? 		C 		0.55866
C 1.0  		0.7527622048800293 		0.7171950142310335  0.7452808308679197 		Uiso   ? 		C 		0.55866
C 1.0  		0.8886746750623495 		0.4939150063794288  0.5856182012569366 		Uiso   ? 		C 		0.56089
C 1.0  		0.2574963895700763 		0.4244773775640397  0.7978888895174201 		Uiso   ? 		C 		0.56089
C 1.0  		1.0517577415832915 		0.8222102267150849  0.5653952109696287 		Uiso   ? 		C 		0.56089
C 1.0  		0.42618105803125783 		0.7618510158013545  0.7930806260924657 		Uiso   ? 		C 		0.56089
C 1.0  		0.22546195804544733 		0.1619393463539111  0.5789714841694998 		Uiso   ? 		C 		0.56089
C 1.0  		0.5911408096418626 		0.09348316812248504  0.7827570016800638 		Uiso   ? 		C 		0.56089
C 1.0  		0.3905824370221954 		0.4968593581313181  0.5806685183194836 		Uiso   ? 		C 		0.56089
C 1.0  		0.7572010597213774 		0.42815781725390134  0.7949190797549484 		Uiso   ? 		C 		0.56089
C 1.0  		0.5508855360571578 		0.8217195014231035  0.5694963768320899 		Uiso   ? 		C 		0.56089
C 1.0  		-0.07547769063928911 		0.7559623122975758  0.7976060504924227 		Uiso   ? 		C 		0.56089
C 1.0  		0.7265554513667586 		0.16414761016782808  0.5799614207569904 		Uiso   ? 		C 		0.56089
C 1.0  		0.08789834287467177 		0.09250171753852195  0.7857268114425356 		Uiso   ? 		C 		0.56089
C 1.0  		1.1934062128535181 		0.7527725978996959  0.6172961720566357 		Uiso   ? 		C 		0.55998
C 1.0  		-0.16232312687916256 		0.8393856119344392  0.8297082798296178 		Uiso   ? 		C 		0.55998
C 1.0  		0.3599455616403572 		1.0879379723230937  0.627902635494035 		Uiso   ? 		C 		0.55998
C 1.0  		0.007705840667878203 		0.17690646775934832  0.8273041481171406 		Uiso   ? 		C 		0.55998
C 1.0  		0.5254441757316539 		0.41809794876827955  0.6165890744941425 		Uiso   ? 		C 		0.55998
C 1.0  		0.17098612326141335 		0.5081460398468938  0.8237686603046742 		Uiso   ? 		C 		0.55998
C 1.0  		0.6903192951906403 		0.7525272352537051  0.6295996696440188 		Uiso   ? 		C 		0.55998
C 1.0  		0.3419993859953717 		0.8438021395622731  0.8314053139796016 		Uiso   ? 		C 		0.55998
C 1.0  		0.8595099567870816 		1.0879379723230937  0.6305896062315094 		Uiso   ? 		C 		0.55998
C 1.0  		0.5118464115695558 		0.17543429188340368  0.8249000164046635 		Uiso   ? 		C 		0.55998
C 1.0  		1.0253196690870046 		0.41957012464422416  0.6153162988816545 		Uiso   ? 		C 		0.55998
C 1.0  		0.671774994850987 		0.5042202375110414  0.822213045667189 		Uiso   ? 		C 		0.55998
C 1.0  		0.3921538351100746 		0.21101187555206596  0.6568936355562595 		Uiso   ? 		C 		0.55860
C 1.0  		0.3409093733502567 		0.13912062027676905  0.8789222701791503 		Uiso   ? 		C 		0.55860
C 1.0  		0.559710314018744 		0.5474040632054176  0.6525096306688012 		Uiso   ? 		C 		0.55860
C 1.0  		0.5082269692180529 		0.4703601923643145  0.876942397004169 		Uiso   ? 		C 		0.55860
C 1.0  		0.729963426476833 		0.8828148002748062  0.660429123368726 		Uiso   ? 		C 		0.55860
C 1.0  		0.6723090690557376 		0.8040533909117676  0.8765181384666731 		Uiso   ? 		C 		0.55860
C 1.0  		0.8925112498781006 		0.2117479634900383  0.6632575136186991 		Uiso   ? 		C 		0.55860
C 1.0  		-0.16226087824918128 		0.13445873000294437  0.8838719531166033 		Uiso   ? 		C 		0.55860
C 1.0  		1.0608519507852239 		0.5471587005594268  0.6488327233438361 		Uiso   ? 		C 		0.55860
C 1.0  		0.0062682411076871725 		0.4710962803022868  0.881467821404126 		Uiso   ? 		C 		0.55860
C 1.0  		0.2293606521910452 		0.8815879870448523  0.6573178940937554 		Uiso   ? 		C 		0.55860
C 1.0  		0.1694827850103579 		0.8013544018058691  0.8768009774916704 		Uiso   ? 		C 		0.55860
C 1.0  		0.42185368284602787 		0.5037295122190598  0.9117315970788386 		Uiso   ? 		C 		0.56350
C 1.0  		0.3354332269508135 		0.587152811855923  0.7172797673931859 		Uiso   ? 		C 		0.56350
C 1.0  		0.5904068739254805 		0.8391402492884483  0.9072061726788816 		Uiso   ? 		C 		0.56350
C 1.0  		0.5010115556176528 		0.9225635489253117  0.7048348502933041 		Uiso   ? 		C 		0.56350
C 1.0  		0.25322827659882224 		0.17199921483953284  0.9083375287788709 		Uiso   ? 		C 		0.56350
C 1.0  		0.1691364149763849 		0.25370497595446073  0.6993194893058565 		Uiso   ? 		C 		0.56350
C 1.0  		0.923919816615538 		0.5061831386789676  0.9202167678287579 		Uiso   ? 		C 		0.56350
C 1.0  		0.8364128381360918 		0.5908332515457847  0.7148756356807087 		Uiso   ? 		C 		0.56350
C 1.0  		0.0871732047811376 		0.8398763372264207  0.900418036078946 		Uiso   ? 		C 		0.56350
C 1.0  		1.0024642905927588 		0.9237903621552656  0.7035620746808161 		Uiso   ? 		C 		0.56350
C 1.0  		0.7563985281982603 		0.17666110511335756  0.9101759824413533 		Uiso   ? 		C 		0.56350
C 1.0  		0.6673601303982677 		0.25272352537049764  0.7089360161557651 		Uiso   ? 		C 		0.56350
C 1.0  		0.5033251677587387 		0.29566198841888314  0.5197167084325627 		Uiso   ? 		C 		0.56048
C 1.0  		-0.13514120113764355 		0.231622337815291  0.7557458747928205 		Uiso   ? 		C 		0.56048
C 1.0  		0.6730306201132877 		0.630827362842281  0.5354142743199136 		Uiso   ? 		C 		0.56048
C 1.0  		0.03422028366284727 		0.5648248110707627  0.7407554064679629 		Uiso   ? 		C 		0.56048
C 1.0  		0.8406921835351422 		0.9640298360977525  0.5436166060448356 		Uiso   ? 		C 		0.56048
C 1.0  		0.1961117430863722 		0.8975365590342527  0.7458465089179145 		Uiso   ? 		C 		0.56048
C 1.0  		1.002709942078566 		0.2961527137108647  0.51999954745756 		Uiso   ? 		C 		0.56048
C 1.0  		0.3656805397973623 		0.22818726077142018  0.7471192845304024 		Uiso   ? 		C 		0.56048
C 1.0  		1.1709849042948246 		0.6305820001962902  0.5311716889449538 		Uiso   ? 		C 		0.56048
C 1.0  		0.5305227899109164 		0.562125821964864  0.7401897284179683 		Uiso   ? 		C 		0.56048
C 1.0  		0.3393292589734849 		0.9625576602218079  0.5422024109198491 		Uiso   ? 		C 		0.56048
C 1.0  		0.699303745262435 		0.8945922072823634  0.746412186967909 		Uiso   ? 		C 		0.56048
C 1.0  		0.8394090778233294 		0.672048287368731  0.5829312305194622 		Uiso   ? 		C 		0.56289
C 1.0  		0.20470826981490295 		0.6023652959073511  0.7919492699924764 		Uiso   ? 		C 		0.56289
C 1.0  		0.9989302760057974 		1.0042693100402396  0.5745874792820413 		Uiso   ? 		C 		0.56289
C 1.0  		0.37213689070286127 		-0.06403965060359211  0.8007172797673932 		Uiso   ? 		C 		0.56289
C 1.0  		0.6686652463297171 		0.3356560997153794  0.5834969085694568 		Uiso   ? 		C 		0.56289
C 1.0  		0.0317409285616987 		0.2645009323780548  0.7848782943675436 		Uiso   ? 		C 		0.56289
C 1.0  		0.33453890484525534 		0.6673863970949063  0.581375615881977 		Uiso   ? 		C 		0.56289
C 1.0  		0.7018607367522902 		0.5996663068014526  0.7944948212174524 		Uiso   ? 		C 		0.56289
C 1.0  		0.5014491156140882 		1.0020610462263224  0.5735975426945509 		Uiso   ? 		C 		0.56289
C 1.0  		-0.12764879223904055 		-0.06575718912552754  0.8045356066048569 		Uiso   ? 		C 		0.56289
C 1.0  		1.167903269168079 		0.337128275591324  0.5815170353944756 		Uiso   ? 		C 		0.56289
C 1.0  		0.532442310883783 		0.2671999214839533  0.7889794602300046 		Uiso   ? 		C 		0.56289
C 1.0  		1.136162275956313 		0.9259986259691826  0.6236600501190752 		Uiso   ? 		C 		0.56187
C 1.0  		-0.2156816802454018 		0.011041319069584847  0.8282940847046313 		Uiso   ? 		C 		0.56187
C 1.0  		0.30647312613808486 		0.26106585533418397  0.6222458549940887 		Uiso   ? 		C 		0.56187
C 1.0  		-0.05025010306002767 		0.3474335067229365  0.8333851871545829 		Uiso   ? 		C 		0.56187
C 1.0  		0.47335046756148563 		0.5952497791736187  0.6119222305816867 		Uiso   ? 		C 		0.56187
C 1.0  		0.1193085978130562 		0.6835803317302974  0.823061562742181 		Uiso   ? 		C 		0.56187
C 1.0  		0.6375135801897711 		0.9269800765531456  0.6211144988940994 		Uiso   ? 		C 		0.56187
C 1.0  		0.28686637493678396 		0.012758857591520267  0.8273041481171406 		Uiso   ? 		C 		0.56187
C 1.0  		0.8045500900785026 		0.26106585533418397  0.6293168306190215 		Uiso   ? 		C 		0.56187
C 1.0  		0.4527798735348336 		0.3484149573068996  0.8256071139671568 		Uiso   ? 		C 		0.56187
C 1.0  		0.969652973809555 		0.5925507900677202  0.61475062083166 		Uiso   ? 		C 		0.56187
C 1.0  		0.6164106001593155 		0.6769555402885465  1.820210545370208 		Uiso   ? 		C 		0.56187
C 1.0  		0.34038882039422813 		0.3930709588772206  0.6732982990061037 		Uiso   ? 		C 		0.56388
C 1.0  		0.2847431614144357 		0.30940229659436647  0.8762352994416758 		Uiso   ? 		C 		0.56388
C 1.0  		0.5051806059166544 		0.7230837177348122  0.6549137623812784 		Uiso   ? 		C 		0.56388
C 1.0  		0.45248805877285037 		0.647021297477672  0.8776494945666624 		Uiso   ? 		C 		0.56388
C 1.0  		0.6722375681669525 		1.0567769162822653  0.6628332550812032 		Uiso   ? 		C 		0.56388
C 1.0  		0.616989960693364 		-0.021837275493178918  0.8649217384417832 		Uiso   ? 		C 		0.56388
C 1.0  		0.8436136919157232 		0.39061733241731283  0.6718841038811172 		Uiso   ? 		C 		0.56388
C 1.0  		-0.2150906649726347 		0.31013838453233883  0.8820334994541207 		Uiso   ? 		C 		0.56388
C 1.0  		1.0066814843369287 		0.7218569045048583  0.6539238257937877 		Uiso   ? 		C 		0.56388
C 1.0  		-0.04933271547889817 		0.6450583963097458  0.8700128408917349 		Uiso   ? 		C 		0.56388
C 1.0  		0.16984506208907962 		1.0557954656983022  0.6590149282437394 		Uiso   ? 		C 		0.56388
C 1.0  		0.1204332973046851 		-0.02134655020119737  0.8669016116167644 		Uiso   ? 		C 		0.56388
C 1.0  		0.3697574262119221 		0.4492590048091079  0.9210652849037498 		Uiso   ? 		C 		0.49462
C 1.0  		0.28418693100602593 		0.5326823044459712  0.7092188551807624 		Uiso   ? 		C 		0.49462
C 1.0  		0.5378439699784356 		0.7824614780645796  0.910317401953852 		Uiso   ? 		C 		0.49462
C 1.0  		0.4475088805678411 		0.8661301403474335  0.702006460043331 		Uiso   ? 		C 		0.49462
C 1.0  		0.7047060373021 		1.1195897536559034  0.9087617873163668 		Uiso   ? 		C 		0.49462
C 1.0  		0.6180021742818617 		0.19947983119049956  0.6956425819808914 		Uiso   ? 		C 		0.49462
C 1.0  		0.8701717820479646 		0.4492590048091079  0.9231865775912297 		Uiso   ? 		C 		0.49462
C 1.0  		0.7831226532586097 		0.5343998429679065  0.7111987283557436 		Uiso   ? 		C 		0.49462
C 1.0  		1.0367556205084352 		0.7854058298164688  0.9091860458538628 		Uiso   ? 		C 		0.49462
C 1.0  		0.9484796941302713 		0.8680930415153597  0.7012993624808376 		Uiso   ? 		C 		0.49462
C 1.0  		0.20102979256740217 		1.1168907645500048  0.9055091385288976 		Uiso   ? 		C 		0.49462
C 1.0  		1.1181711706001423 		0.19898910589851804  0.6911171575809343 		Uiso   ? 		C 		0.49462
C 1.0  		0.4554634404714871 		0.24413583276082051  0.5349900157824176 		Uiso   ? 		C 		0.49420
C 1.0  		-0.18843138601512566 		0.17518892923741292  0.757160069917807 		Uiso   ? 		C 		0.49420
C 1.0  		0.6210153762697828 		0.5743939542644029  0.5352728548074149 		Uiso   ? 		C 		0.49420
C 1.0  		-0.016487149801248324 		0.5088821277848661  0.747684962580397 		Uiso   ? 		C 		0.49420
C 1.0  		0.7874918090711087 		0.9073510648738836  0.5437580255573343 		Uiso   ? 		C 		0.49420
C 1.0  		0.1436955906207925 		0.8398763372264207  0.7451394113554212 		Uiso   ? 		C 		0.49420
C 1.0  		0.9523705478911128 		0.24094611836294044  0.5324444645574418 		Uiso   ? 		C 		0.49420
C 1.0  		0.31288107395540365 		0.17273530277750515  0.7520689674678553 		Uiso   ? 		C 		0.49420
C 1.0  		1.1191164119327848 		0.5731671410344489  0.5287675572324767 		Uiso   ? 		C 		0.49420
C 1.0  		0.481368526343992 		0.5071645892629307  0.7503719333178714 		Uiso   ? 		C 		0.49420
C 1.0  		0.2856140937513437 		0.9061242516439298  0.5464449962948088 		Uiso   ? 		C 		0.49420
C 1.0  		0.6468394493516867 		0.8393856119344392  0.747260704042901 		Uiso   ? 		C 		0.49420
C 1.0  		0.7889229321544112 		0.6178231426047699  0.5719005085445669 		Uiso   ? 		C 		0.49510
C 1.0  		0.15467117621322812 		0.5469133379134361  0.7799286114300906 		Uiso   ? 		C 		0.49510
C 1.0  		0.945182241438224 		0.9473451761703799  0.5720419280570656 		Uiso   ? 		C 		0.49510
C 1.0  		0.3217369360863741 		0.8823240749828247  0.7886966212050074 		Uiso   ? 		C 		0.49510
C 1.0  		1.1204007835346221 		0.28462066934929825  0.5658194695071248 		Uiso   ? 		C 		0.49510
C 1.0  		0.4805256750765747 		0.21223868878201985  0.7840297772925516 		Uiso   ? 		C 		0.49510
C 1.0  		0.2821403476253713 		0.6131612523309452  0.5721833475695643 		Uiso   ? 		C 		0.49510
C 1.0  		0.653050440739424 		0.5466679752674454  0.7787972553301014 		Uiso   ? 		C 		0.49510
C 1.0  		0.44850937476755287 		0.942928648542546  0.5716176695195696 		Uiso   ? 		C 		0.49510
C 1.0  		-0.17563681864619063 		0.8833055255667878  0.7881309431550129 		Uiso   ? 		C 		0.49510
C 1.0  		0.6232547930741232 		0.28265776818137206  0.5662437280446206 		Uiso   ? 		C 		0.49510
C 1.0  		-0.023371857453300532 		0.2078221611541859  0.7821913236300692 		Uiso   ? 		C 		0.49510
C 1.0  		1.0834766922503873 		0.8690744920993229  0.6181446891316277 		Uiso   ? 		C 		0.49767
C 1.0  		-0.2687746490502908 		-0.042447737756403967  0.8355064798420627 		Uiso   ? 		C 		0.49767
C 1.0  		0.2541555817088017 		0.2048778094022966  0.6236600501190752 		Uiso   ? 		C 		0.49767
C 1.0  		-0.10255884986646291 		0.2929629993129846  0.8434259725419875 		Uiso   ? 		C 		0.49767
C 1.0  		0.42301987099688054 		0.5417607223476298  0.6245085671940672 		Uiso   ? 		C 		0.49767
C 1.0  		0.0681849816271495 		0.6293551869663363  0.8346579627670708 		Uiso   ? 		C 		0.49767
C 1.0  		0.5847381860703966 		0.8703013053292767  0.622952952556582 		Uiso   ? 		C 		0.49767
C 1.0  		0.2342553275445705 		-0.04146628717244087  0.834516543254572 		Uiso   ? 		C 		0.49767
C 1.0  		0.7520200554768899 		0.2048778094022966  0.6294582501315201 		Uiso   ? 		C 		0.49767
C 1.0  		0.40508896945163164 		0.29468053783492004  0.840314743267017 		Uiso   ? 		C 		0.49767
C 1.0  		0.9207616650060879 		0.541515359701639  0.6291754111065229 		Uiso   ? 		C 		0.49767
C 1.0  		0.5677317815281782 		0.6259201099224655  0.8349408017920681 		Uiso   ? 		C 		0.49767
C 1.0  		0.2895915765166839 		0.33737363823731475  0.6676415185061574 		Uiso   ? 		C 		0.49466
C 1.0  		0.23339825743335152 		0.25345961330846994  0.8693057433292416 		Uiso   ? 		C 		0.49466
C 1.0  		0.4544491007299744 		0.6683678476788695  0.6646717087436856 		Uiso   ? 		C 		0.49466
C 1.0  		0.39953304382657867 		0.5908332515457847  0.8714270360167214 		Uiso   ? 		C 		0.49466
C 1.0  		0.6206801740135386 		1.0008342329963686  0.6669344209436642 		Uiso   ? 		C 		0.49466
C 1.0  		0.5647381549549452 		-0.07704387084110316  1.866737564982266 		Uiso   ? 		C 		0.49466
C 1.0  		0.7910507879686782 		0.33393856119344395  0.6689142941186453 		Uiso   ? 		C 		0.49466
C 1.0  		0.7345486918226793 		0.25493178918441456  0.8734069091917027 		Uiso   ? 		C 		0.49466
C 1.0  		0.955091220838083 		0.6654234959269801  0.6595806062937339 		Uiso   ? 		C 		0.49466
C 1.0  		-0.10143776973585172 		0.5888703503778585  0.8725583921167107 		Uiso   ? 		C 		0.49466
C 1.0  		1.1186015888496432 		1.0000981450583963  0.6621261575187098 		Uiso   ? 		C 		0.49466
C 1.0  		0.06881896208325491 		-0.07655314554912161  0.8635075433167967 		Uiso   ? 		C 		0.49466
C 1.0  		0.36534657110610935 		0.5007851604671705  0.9121558556163346 		Uiso   ? 		C 		0.50473
C 1.0  		0.2793839649009862 		0.5846991853960154  0.7114815673807409 		Uiso   ? 		C 		0.50473
C 1.0  		0.533858095217282 		0.8339876337226422  0.9076304312163775 		Uiso   ? 		C 		0.50473
C 1.0  		0.4444627769094542 		0.9174109333595054  0.7097845332307571 		Uiso   ? 		C 		0.50473
C 1.0  		0.19751418448020536 		0.16979095102561587  0.9031050068164206 		Uiso   ? 		C 		0.50473
C 1.0  		1.1128446161141472 		0.24953381097261754  0.6973396161308753 		Uiso   ? 		C 		0.50473
C 1.0  		0.8670928090441455 		0.5000490725291982  0.9145599873288116 		Uiso   ? 		C 		0.50473
C 1.0  		0.7798071183598767 		0.5864167239179509  0.7126129234807301 		Uiso   ? 		C 		0.50473
C 1.0  		1.0311596347820937 		0.8366866228285407  0.9031050068164206 		Uiso   ? 		C 		0.50473
C 1.0  		0.9465289106789645 		0.9198645598194132  0.7099259527432557 		Uiso   ? 		C 		0.50473
C 1.0  		0.6998497494900615 		0.1715084895475513  0.9045192019414071 		Uiso   ? 		C 		0.50473
C 1.0  		0.612340449864656 		0.24977917361860832  0.7038449137058135 		Uiso   ? 		C 		0.50473
C 1.0  		0.44824854615711035 		0.29345372460496616  0.5279190401574848 		Uiso   ? 		C 		0.50207
C 1.0  		-0.19046318225703351 		0.22892334870939252  0.748109221117893 		Uiso   ? 		C 		0.50207
C 1.0  		0.6183613836106228 		0.6251840219844932  0.5262220060075009 		Uiso   ? 		C 		0.50207
C 1.0  		-0.02358816197959218 		0.5567278437530672  0.7375027576804937 		Uiso   ? 		C 		0.50207
C 1.0  		0.7845771827944505 		0.9605947590538817  0.5399396987198706 		Uiso   ? 		C 		0.50207
C 1.0  		0.1399310036548162 		0.8931200314064188  0.7399068893929709 		Uiso   ? 		C 		0.50207
C 1.0  		0.9463495818201124 		0.29222691137501233  0.5267876840574955 		Uiso   ? 		C 		0.50207
C 1.0  		0.3089192709168342 		0.22303464520561392  0.742311021105448 		Uiso   ? 		C 		0.50207
C 1.0  		1.1154657071028413 		0.6249386593385023  0.5239592938075224 		Uiso   ? 		C 		0.50207
C 1.0  		0.47406382161616656 		0.5567278437530672  0.7414625040304562 		Uiso   ? 		C 		0.50207
C 1.0  		0.282756408542702 		0.9586318578859555  0.5382426645698867 		Uiso   ? 		C 		0.50207
C 1.0  		0.6442840647288233 		0.8916478555304741  0.7396240503679736 		Uiso   ? 		C 		0.50207
C 1.0  		0.7839403452224744 		0.6703307488467957  0.5765673524570226 		Uiso   ? 		C 		0.50381
C 1.0  		0.1483719812790339 		0.5972126803415448  0.7862924894925302 		Uiso   ? 		C 		0.50381
C 1.0  		0.9416213470217294 		0.9988713318284425  0.5795371622194944 		Uiso   ? 		C 		0.50381
C 1.0  		0.3165695500657096 		-0.06722936500147218  0.7957675968299401 		Uiso   ? 		C 		0.50381
C 1.0  		0.6126641277250584 		0.3307488467955639  0.5751531573320361 		Uiso   ? 		C 		0.50381
C 1.0  		-0.02411343856149481 		0.2586122288742762  0.7944948212174524 		Uiso   ? 		C 		0.50381
C 1.0  		0.2785225121408602 		0.6654234959269801  0.5782643866070065 		Uiso   ? 		C 		0.50381
C 1.0  		0.6458596181476315 		0.5947590538816371  0.7903936553549913 		Uiso   ? 		C 		0.50381
C 1.0  		0.44495727797390605 		0.996172342722544  0.5757188353820306 		Uiso   ? 		C 		0.50381
C 1.0  		-0.18413183225637475 		-0.0699283541073707  0.8008586992798918 		Uiso   ? 		C 		0.50381
C 1.0  		1.1123928695989438 		0.33320247325547164  0.5745874792820413 		Uiso   ? 		C 		0.50381
C 1.0  		0.4748222836910889 		0.2603297673962116  0.7973232114674255 		Uiso   ? 		C 		0.50381
C 1.0  		1.0789190856631092 		0.9215820983413485  0.6205488208441048 		Uiso   ? 		C 		0.50514
C 1.0  		-0.2700814855077208 		0.004661890273824713  0.8185361383422239 		Uiso   ? 		C 		0.50514
C 1.0  		0.24971185725755674 		0.25591323976837765  0.6172961720566357 		Uiso   ? 		C 		0.50514
C 1.0  		-0.10828631297453292 		0.3422808911571303  0.8329609286170868 		Uiso   ? 		C 		0.50514
C 1.0  		0.4182169048918408 		0.593777603297674  0.6184275281566249 		Uiso   ? 		C 		0.50514
C 1.0  		0.06302925034520362 		0.6776916282265188  0.8203745920047065 		Uiso   ? 		C 		0.50514
C 1.0  		0.5817008800348576 		0.923299636863284  0.6205488208441048 		Uiso   ? 		C 		0.50514
C 1.0  		0.23071850485066012 		0.008833055255667877  0.8244757578671675 		Uiso   ? 		C 		0.50514
C 1.0  		0.7473068997852989 		0.25664932770635  0.6281854745190323 		Uiso   ? 		C 		0.50514
C 1.0  		0.3954709445507656 		0.3430169790951026  0.8282940847046313 		Uiso   ? 		C 		0.50514
C 1.0  		0.9134481626554145 		0.5893610756698401  0.6178618501066303 		Uiso   ? 		C 		0.50514
C 1.0  		0.5586109521397241 		0.6705761114927864  0.8200917529797092 		Uiso   ? 		C 		0.50514
C 1.0  		0.28625196989536666 		0.39061733241731283  0.6629746745937017 		Uiso   ? 		C 		0.50567
C 1.0  		0.22718887291260595 		0.30351359309058795  0.876942397004169 		Uiso   ? 		C 		0.50567
C 1.0  		0.4476263174148245 		0.7171950142310335  0.6547723428687796 		Uiso   ? 		C 		0.50567
C 1.0  		0.3953916199611119 		0.641623319265875  0.879912206766641 		Uiso   ? 		C 		0.50567
C 1.0  		0.6164970831797918 		1.049416036902542  0.6537824062812891 		Uiso   ? 		C 		0.50567
C 1.0  		0.5614795611242287 		-0.025763077829031308  0.8743968457791932 		Uiso   ? 		C 		0.50567
C 1.0  		0.7863135605545031 		0.3869368927274512  0.6675000989936587 		Uiso   ? 		C 		0.50567
C 1.0  		0.728797156992025 		0.30547649425851414  0.8801950457916382 		Uiso   ? 		C 		0.50567
C 1.0  		0.9484897253181105 		0.7159682010010797  0.6540652453062864 		Uiso   ? 		C 		0.50567
C 1.0  		-0.10438526535794207 		0.641623319265875  0.8770838165166677 		Uiso   ? 		C 		0.50567
C 1.0  		1.1141490667755507 		1.049416036902542  0.6533581477437931 		Uiso   ? 		C 		0.50567
C 1.0  		0.0647673486312368 		-0.026008440475022085  0.8729826506542067 		Uiso   ? 		C 		0.50567
C 1.0  		0.31750562047350334 		0.3940524094611837  0.9264392263786989 		Uiso   ? 		C 		0.53605
C 1.0  		0.23186938657674275 		0.47649425851408383  0.7032792356558188 		Uiso   ? 		C 		0.53605
C 1.0  		0.486442124929335 		0.7272548827166553  0.9173883775787849 		Uiso   ? 		C 		0.53605
C 1.0  		0.39555937541520053 		0.8106781823535185  0.7004508454058458 		Uiso   ? 		C 		0.53605
C 1.0  		0.6528134732174758 		1.063401707724016  0.9122972751288332 		Uiso   ? 		C 		0.53605
C 1.0  		0.5662082182335341 		0.1447639611345569  0.6864503136684788 		Uiso   ? 		C 		0.53605
C 1.0  		0.8176176757237676 		0.3942977721071744  0.9296918751661679 		Uiso   ? 		C 		0.53605
C 1.0  		0.7311074094151047 		0.4779664343900285  0.7068147234682853 		Uiso   ? 		C 		0.53605
C 1.0  		0.9852310957004536 		0.7299538718225538  0.9132872117163238 		Uiso   ? 		C 		0.53605
C 1.0  		0.8954918098385676 		0.8114142702914908  0.7005922649183444 		Uiso   ? 		C 		0.53605
C 1.0  		0.14819745738001133 		1.0609480812641083  0.9066404946288869 		Uiso   ? 		C 		0.53605
C 1.0  		1.0660091752751724 		0.143537147904603  0.6854603770809882 		Uiso   ? 		C 		0.53605
C 1.0  		0.4041842751812673 		0.18917460005888706  0.5454550597073182 		Uiso   ? 		C 		0.53886
C 1.0  		0.7589515916751643 		0.11801943272156247  0.7539074211303379 		Uiso   ? 		C 		0.53886
C 1.0  		0.5665400607717721 		0.5177151830405339  0.5345657572449216 		Uiso   ? 		C 		0.53886
C 1.0  		-0.064659975297126 		0.45588379625085884  0.761685494317764 		Uiso   ? 		C 		0.53886
C 1.0  		0.7340877420575938 		0.8523898321719503  0.5505461621572698 		Uiso   ? 		C 		0.53886
C 1.0  		0.0928414056752318 		0.7849151045244872  0.7478263820928956 		Uiso   ? 		C 		0.53886
C 1.0  		0.9002085525661426 		0.18549416036902544  0.5426266694573451 		Uiso   ? 		C 		0.53886
C 1.0  		0.2619130068738099 		0.11924624595151635  0.7614026552927667 		Uiso   ? 		C 		0.53886
C 1.0  		1.067256717193593 		0.5174698203945431  0.5311716889449538 		Uiso   ? 		C 		0.53886
C 1.0  		0.4321244523636188 		0.452448719206988  0.7619683333427613 		Uiso   ? 		C 		0.53886
C 1.0  		0.23251232732360683 		0.8509176562960056  0.54842486946979 		Uiso   ? 		C 		0.53886
C 1.0  		0.5944649638543871 		0.7839336539405242  0.7490991577053835 		Uiso   ? 		C 		0.53886
C 1.0  		0.7357794987583943 		0.5604082834429287  0.5682236012196018 		Uiso   ? 		C 		0.53878
C 1.0  		0.10332627223214391 		0.4909706546275395  0.7725747967801606 		Uiso   ? 		C 		0.53878
C 1.0  		0.8940410300066215 		0.8896849543625479  0.5751531573320361 		Uiso   ? 		C 		0.53878
C 1.0  		0.26735143100181213 		0.825399941112965  0.7814842260675758 		Uiso   ? 		C 		0.53878
C 1.0  		1.070330820587515 		0.22867798606340173  0.5580413963196986 		Uiso   ? 		C 		0.53878
C 1.0  		0.42863311099195056 		0.1560506428501325  0.7785144163051041 		Uiso   ? 		C 		0.53878
C 1.0  		0.22912839161108312 		0.5577092943370302  0.5653952109696287 		Uiso   ? 		C 		0.53878
C 1.0  		0.6011338049322157 		0.4917067425655119  0.7717262797051686 		Uiso   ? 		C 		0.53878
C 1.0  		0.39615896099283754 		0.8862498773186771  0.5747288987945401 		Uiso   ? 		C 		0.53878
C 1.0  		0.7727516688377305 		0.8268721169889097  0.7793629333800961 		Uiso   ? 		C 		0.53878
C 1.0  		0.5763240392667908 		0.22916871135538328  0.5528088743572483 		Uiso   ? 		C 		0.53878
C 1.0  		-0.07635974174500447 		0.151143389930317  0.7827570016800638 		Uiso   ? 		C 		0.53878
C 1.0  		1.0327363894408594 		0.8126410835214447  0.6168719135191397 		Uiso   ? 		C 		0.53827
C 1.0  		0.6775218060557673 		-0.09839042104230053  0.8359307383795586 		Uiso   ? 		C 		0.53827
C 1.0  		1.1999941871247686 		0.1484444008244185  0.6240843086565713 		Uiso   ? 		C 		0.53827
C 1.0  		-0.15372413302064977 		0.2365295907351065  0.8500726896294244 		Uiso   ? 		C 		0.53827
C 1.0  		0.37195319587899023 		0.48679948964569636  0.6348321916064691 		Uiso   ? 		C 		0.53827
C 1.0  		0.014502685750440503 		0.5734125036804398  0.8405975822920143 		Uiso   ? 		C 		0.53827
C 1.0  		0.5331895895398309 		0.8160761605653156  0.61475062083166 		Uiso   ? 		C 		0.53827
C 1.0  		0.17936382932474865 		-0.09642751987437434  0.8422946164419983 		Uiso   ? 		C 		0.53827
C 1.0  		0.6990891122532025 		0.1474629502404554  0.6273369574440403 		Uiso   ? 		C 		0.53827
C 1.0  		0.35456995443728123 		0.23996466777897735  0.8462543627919606 		Uiso   ? 		C 		0.53827
C 1.0  		0.8670793691293789 		0.48557267641574253  0.6331351574564853 		Uiso   ? 		C 		0.53827
C 1.0  		0.5169433352734818 		0.5719403278044951  0.8459715237669633 		Uiso   ? 		C 		0.53827
C 1.0  		0.23733097315541724 		0.28044950436745514  0.6638231916686936 		Uiso   ? 		C 		0.53732
C 1.0  		0.18474351052479837 		0.201197369712435  0.8548809530543786 		Uiso   ? 		C 		0.53732
C 1.0  		0.406039713339183 		0.616596329374816  0.6765509477935727 		Uiso   ? 		C 		0.53732
C 1.0  		0.34858025084472133 		0.5343998429679065  0.8664773530792684 		Uiso   ? 		C 		0.53732
C 1.0  		0.5685093810657207 		0.9436647364805183  0.6660859038686722 		Uiso   ? 		C 		0.53732
C 1.0  		0.5126864224049903 		0.8668662282854058  1.8644748527822874 		Uiso   ? 		C 		0.53732
C 1.0  		0.7374671001282659 		0.27946805378349204  0.6717426843686185 		Uiso   ? 		C 		0.53732
C 1.0  		0.6858041345006775 		0.20291490823437042  1.8600908478948293 		Uiso   ? 		C 		0.53732
C 1.0  		0.9060684346528871 		0.6124251643929729  0.6704699087561306 		Uiso   ? 		C 		0.53732
C 1.0  		-0.15390206564660003 		0.5336637550299342  0.8663359335667699 		Uiso   ? 		C 		0.53732
C 1.0  		1.0667330964876036 		0.9426832858965553  0.663681772156195 		Uiso   ? 		C 		0.53732
C 1.0  		0.016497798292953947 		0.8680930415153597  0.858840699404341 		Uiso   ? 		C 		0.53732
C 1.0  		0.3135526150577818 		0.44606929041122784  0.9179540556287794 		Uiso   ? 		C 		0.50885
C 1.0  		0.2270664204717031 		0.528511139464128  0.7087945966432664 		Uiso   ? 		C 		0.50885
C 1.0  		0.4832492697894829 		0.7795171263126902  0.9161156019662969 		Uiso   ? 		C 		0.50885
C 1.0  		0.3934530428595804 		0.8617136127195997  0.7110573088432449 		Uiso   ? 		C 		0.50885
C 1.0  		0.6474628470088963 		1.1151732260280696  0.9090446263413641 		Uiso   ? 		C 		0.50885
C 1.0  		0.5605136244708963 		0.1945725782706841  0.6952183234433955 		Uiso   ? 		C 		0.50885
C 1.0  		0.814481761651932 		0.44582392776523705  0.9227623190537338 		Uiso   ? 		C 		0.50885
C 1.0  		0.7281029727249979 		0.5314554912160173  0.7068147234682853 		Uiso   ? 		C 		0.50885
C 1.0  		0.9796022406286801 		0.7807439395426441  0.9104588214663506 		Uiso   ? 		C 		0.50885
C 1.0  		0.8928466148022554 		0.8639218765335166  0.7069561429807839 		Uiso   ? 		C 		0.50885
C 1.0  		0.14422038024170558 		1.1141917754441066  0.9015493921789353 		Uiso   ? 		C 		0.50885
C 1.0  		1.0606256797211606 		0.19481794091667487  0.6909757380684357 		Uiso   ? 		C 		0.50885
C 1.0  		0.39950398883510857 		0.241436843654922  0.5410710548198598 		Uiso   ? 		C 		0.50843
C 1.0  		0.7565276844340295 		0.1722445774855236  0.7498062552678768 		Uiso   ? 		C 		0.50843
C 1.0  		0.5651128657014206 		0.570958877220532  0.5300403328449647 		Uiso   ? 		C 		0.50843
C 1.0  		-0.07391875854419727 		0.5032387869270784  0.7503719333178714 		Uiso   ? 		C 		0.50843
C 1.0  		0.7304041678822181 		0.903670625184022  0.5395154401823746 		Uiso   ? 		C 		0.50843
C 1.0  		0.08818519105165729 		0.8359505348905684  0.7391997918304777 		Uiso   ? 		C 		0.50843
C 1.0  		0.8966235864270636 		0.23824712925704192  0.537676986519892 		Uiso   ? 		C 		0.50843
C 1.0  		0.25627535417918856 		0.16831877514967125  0.7499476747803755 		Uiso   ? 		C 		0.50843
C 1.0  		1.0625676332245861 		0.5680145254686427  0.524524971857517 		Uiso   ? 		C 		0.50843
C 1.0  		0.42430495687768566 		0.5022573363431152  0.7551801967428258 		Uiso   ? 		C 		0.50843
C 1.0  		0.23043886411341885 		0.9024438119540682  0.5382426645698867 		Uiso   ? 		C 		0.50843
C 1.0  		0.5916072786457454 		0.8364412601825498  0.7408968259804615 		Uiso   ? 		C 		0.50843
C 1.0  		0.7322602713101798 		0.6141427029149084  0.5710519914695751 		Uiso   ? 		C 		0.51004
C 1.0  		0.09782009691925136 		0.5420060849936207  0.7771002211801176 		Uiso   ? 		C 		0.51004
C 1.0  		0.88899270438382 		0.9412111100206105  0.5774158695320146 		Uiso   ? 		C 		0.51004
C 1.0  		0.2641585758619601 		0.8776621847089999  0.7882723626675114 		Uiso   ? 		C 		0.51004
C 1.0  		1.064187174757634 		0.2797134164294828  0.5614354646196664 		Uiso   ? 		C 		0.51004
C 1.0  		0.42245659581663714 		0.20659534792423204  0.7869995870550236 		Uiso   ? 		C 		0.51004
C 1.0  		0.22526519660881028 		0.6094808126410836  0.5713348304945723 		Uiso   ? 		C 		0.51004
C 1.0  		0.5977284596200341 		0.5439689861615469  0.7763931236176244 		Uiso   ? 		C 		0.51004
C 1.0  		0.39366931506083835 		0.9394935714986752  0.5772744500195158 		Uiso   ? 		C 		0.51004
C 1.0  		0.7681611929050203 		0.8788889979389538  0.7864339090050289 		Uiso   ? 		C 		0.51004
C 1.0  		0.568447602712841 		0.2797134164294828  0.5577585572947013 		Uiso   ? 		C 		0.51004
C 1.0  		-0.07817904781458282 		0.2048778094022966  0.7889794602300046 		Uiso   ? 		C 		0.51004
C 1.0  		1.0271732730599505 		0.8644126018254982  0.6197003037691128 		Uiso   ? 		C 		0.51448
C 1.0  		0.675726571708773 		-0.04588281480027481  0.8288597627546258 		Uiso   ? 		C 		0.51448
C 1.0  		1.1969568810892293 		0.20144273235842575  0.6228115330440833 		Uiso   ? 		C 		0.51448
C 1.0  		-0.1587067199525868 		0.2890371969771322  0.8438502310794834 		Uiso   ? 		C 		0.51448
C 1.0  		0.36764094880947407 		0.5397978211797037  0.6291754111065229 		Uiso   ? 		C 		0.51448
C 1.0  		0.01161213119636656 		0.6254293846304839  0.831688153004599 		Uiso   ? 		C 		0.51448
C 1.0  		0.5287129957431537 		0.8666208656394151  0.618003269619129 		Uiso   ? 		C 		0.51448
C 1.0  		0.1785412354259536 		-0.043674550986357835  0.8335266066670816 		Uiso   ? 		C 		0.51448
C 1.0  		0.6952018455283453 		0.20046128177446265  0.6310138647690053 		Uiso   ? 		C 		0.51448
C 1.0  		0.34809113867618957 		0.29075473549906766  0.8439916505919821 		Uiso   ? 		C 		0.51448
C 1.0  		0.8649577624740223 		0.5395524585337128  0.6325694794064906 		Uiso   ? 		C 		0.51448
C 1.0  		0.5128676500988794 		0.6237118461085485  0.8398904847295211 		Uiso   ? 		C 		0.51448
C 1.0  		0.2345061572922077 		0.3334478359014624  0.6574593136062542 		Uiso   ? 		C 		0.50836
C 1.0  		0.17822302779542668 		0.24977917361860832  0.8659116750292739 		Uiso   ? 		C 		0.50836
C 1.0  		0.3965684399197822 		0.6639513200510355  0.6666515819186669 		Uiso   ? 		C 		0.50836
C 1.0  		0.3427060362551861 		0.5846991853960154  0.8758110409041797 		Uiso   ? 		C 		0.50836
C 1.0  		0.5639429768555948 		0.9944548042006086  0.6580249916562487 		Uiso   ? 		C 		0.50836
C 1.0  		0.5091948860403778 		-0.0814603984689371  0.8710027774792255 		Uiso   ? 		C 		0.50836
C 1.0  		0.7352380878137649 		0.33025812150358236  0.6635403526436964 		Uiso   ? 		C 		0.50836
C 1.0  		0.678924410117511 		0.2524781627245068  0.868315806741751 		Uiso   ? 		C 		0.50836
C 1.0  		0.8981832004760897 		0.6612523309451369  0.6624089965437071 		Uiso   ? 		C 		0.50836
C 1.0  		-0.1573074109587817 		0.5859259986259692  0.8732654896792039 		Uiso   ? 		C 		0.50836
C 1.0  		1.0616190321739378 		0.9932279909706547  0.6554794404312729 		Uiso   ? 		C 		0.50836
C 1.0  		0.01178826196238076 		-0.08096967317695555  0.8659116750292739 		Uiso   ? 		C 		0.50836
C 1.0  		0.8110764163397505 		0.498086171361272  0.9161156019662969 		Uiso   ? 		C 		0.55877
C 1.0  		0.7240601568958276 		0.5837177348120522  0.7111987283557436 		Uiso   ? 		C 		0.55877
C 1.0  		0.9744881763150143 		0.8312886446167436  0.9032464263289192 		Uiso   ? 		C 		0.55877
C 1.0  		0.8900370730387823 		0.9139758563156346  0.7186939625181724 		Uiso   ? 		C 		0.55877
C 1.0  		0.14201258253391802 		0.16758268721169892  0.900842294616442 		Uiso   ? 		C 		0.55877
C 1.0  		1.0563046350287966 		0.24609873392874668  0.6988952307683606 		Uiso   ? 		C 		0.55877
C 1.0  		0.3093871194697307 		0.498086171361272  0.9113073385413426 		Uiso   ? 		C 		0.55877
C 1.0  		0.2219194868126052 		0.578565119246246  0.7154413137307033 		Uiso   ? 		C 		0.55877
C 1.0  		0.4794846828235066 		0.8327608204926883  0.9165398605037929 		Uiso   ? 		C 		0.55877
C 1.0  		0.38865007675454083 		0.9137304936696439  0.7158655722681994 		Uiso   ? 		C 		0.55877
C 1.0  		0.6428431210917718 		0.1658651486897635  0.9019736507164313 		Uiso   ? 		C 		0.55877
C 1.0  		0.5563481288828451 		0.24658945922072822  0.702006460043331 		Uiso   ? 		C 		0.55877
C 1.0  		0.8926465092887579 		0.29149082343703997  0.5361213718824068 		Uiso   ? 		C 		0.55850
C 1.0  		0.25125989790181935 		0.2203356560997154  0.742735279642944 		Uiso   ? 		C 		0.55850
C 1.0  		1.0588928566720583 		0.62101285700265  0.51999954745756 		Uiso   ? 		C 		0.55850
C 1.0  		0.4189543306691061 		0.5540288546471686  0.7506547723428688 		Uiso   ? 		C 		0.55850
C 1.0  		0.22691083904235648 		0.9544606929041124  0.5351314352949162 		Uiso   ? 		C 		0.55850
C 1.0  		0.5873431750213979 		0.8869859652566494  0.7343915284055232 		Uiso   ? 		C 		0.55850
C 1.0  		0.39198679393495356 		0.2910000981450584  0.5361213718824068 		Uiso   ? 		C 		0.55850
C 1.0  		0.7535473194665069 		0.22450682108155856  0.7430181186679413 		Uiso   ? 		C 		0.55850
C 1.0  		0.5621894418019145 		0.6224850328785946  0.5229693572200318 		Uiso   ? 		C 		0.55850
C 1.0  		-0.07998139158347767 		0.5523113161252331  0.7417453430554535 		Uiso   ? 		C 		0.55850
C 1.0  		0.7272441820877982 		0.9564235940720386  0.5356971133449109 		Uiso   ? 		C 		0.55850
C 1.0  		0.0843877347402488 		0.8887035037785848  0.7328359137680381 		Uiso   ? 		C 		0.55850
C 1.0  		0.7260837561348663 		0.6646874079890078  0.5786886451445025 		Uiso   ? 		C 		0.56354
C 1.0  		0.09243660136523957 		0.5932868780056925  0.7840297772925516 		Uiso   ? 		C 		0.56354
C 1.0  		0.8859466007254333 		0.9924919030326824  0.5868909768694246 		Uiso   ? 		C 		0.56354
C 1.0  		0.2604633469478658 		-0.06894690352340761  0.7937877236549591 		Uiso   ? 		C 		0.56354
C 1.0  		1.0555746596503992 		0.3287859456276377  0.5690721182945938 		Uiso   ? 		C 		0.56354
C 1.0  		0.41855173384608424 		0.25615860241436844  0.7988788261049107 		Uiso   ? 		C 		0.56354
C 1.0  		0.22295517150370847 		0.6622337815291001  0.5806685183194836 		Uiso   ? 		C 		0.56354
C 1.0  		0.5895561989571947 		0.5900971636078124  0.7895451382799994 		Uiso   ? 		C 		0.56354
C 1.0  		0.3888094078877822 		0.9922465403866915  0.5825069719819662 		Uiso   ? 		C 		0.56354
C 1.0  		0.7608601075382125 		-0.07238198056727844  0.7960504358549375 		Uiso   ? 		C 		0.56354
C 1.0  		0.5559926692579789 		0.32535086858376683  0.5685064402445992 		Uiso   ? 		C 		0.56354
C 1.0  		-0.07991734109356038 		0.25664932770635  0.7988788261049107 		Uiso   ? 		C 		0.56354
C 1.0  		0.5250053498451939 		0.9191284718814409  0.6177204305941317 		Uiso   ? 		C 		0.56453
C 1.0  		0.17628815138886833 		0.00834232996368633  0.8256071139671568 		Uiso   ? 		C 		0.56453
C 1.0  		0.6906683106636518 		0.25174207478653454  0.6247914062190645 		Uiso   ? 		C 		0.56453
C 1.0  		0.33990360391361385 		0.3398272646972225  0.834516543254572 		Uiso   ? 		C 		0.56453
C 1.0  		0.8580122993999915 		0.5881342624398862  0.6223872745065873 		Uiso   ? 		C 		0.56453
C 1.0  		0.5048268668177688 		0.6718029247227403  0.827162728604642 		Uiso   ? 		C 		0.56453
C 1.0  		1.0226156664726724 		0.916920208067524  0.6154577183941532 		Uiso   ? 		C 		0.56453
C 1.0  		0.6766367685340464 		0.007360879379723231  0.8188189773672212 		Uiso   ? 		C 		0.56453
C 1.0  		1.1945570455706789 		0.25444106389243304  0.6184275281566249 		Uiso   ? 		C 		0.56453
C 1.0  		-0.16302776464495086 		0.3403179899892041  0.835365060329564 		Uiso   ? 		C 		0.56453
C 1.0  		0.3614315642887284 		0.5898518009618215  0.6206902403566035 		Uiso   ? 		C 		0.56453
C 1.0  		0.00685730853649541 		0.6749926391206204  0.8191018163922186 		Uiso   ? 		C 		0.56453
C 1.0  		0.2307985113942479 		0.3859554421434881  0.6556208599437716 		Uiso   ? 		C 		0.56352
C 1.0  		0.17125349299881165 		0.2995877907547355  0.8742554262666946 		Uiso   ? 		C 		0.56352
C 1.0  		0.39215758481396934 		0.715477475709098  0.659156347756238 		Uiso   ? 		C 		0.56352
C 1.0  		0.33912107011610715 		0.6374521542840318  0.8809021433541314 		Uiso   ? 		C 		0.56352
C 1.0  		0.5605288339205654 		1.0449995092747082  0.6484084648063402 		Uiso   ? 		C 		0.56352
C 1.0  		0.5052418806246561 		-0.029443517518892924  0.8763767189541745 		Uiso   ? 		C 		0.56352
C 1.0  		0.7302883702272601 		0.3832564530375896  0.6592977672687367 		Uiso   ? 		C 		0.56352
C 1.0  		0.6730830648734081 		0.3032682304445971  0.8752453628541852 		Uiso   ? 		C 		0.56352
C 1.0  		0.8913363454383554 		0.7113063107272549  0.6574593136062542 		Uiso   ? 		C 		0.56352
C 1.0  		-0.16053313544406583 		0.6376975169300226  0.8803364653041368 		Uiso   ? 		C 		0.56352
C 1.0  		1.0573877978950224 		1.0442634213367359  0.6468528501688549 		Uiso   ? 		C 		0.56352
C 1.0  		0.007557027683465325 		-0.029934242810874475  0.8732654896792039 		Uiso   ? 		C 		0.56352
C 1.0  		0.3690212339996479 		0.33516537442339783  0.9202167678287579 		Uiso   ? 		C 		0.49281
C 1.0  		0.2826248498270179 		0.41736186083030724  0.7113401478682423 		Uiso   ? 		C 		0.49281
C 1.0  		0.5364703072491729 		0.6683678476788695  0.9128629531788278 		Uiso   ? 		C 		0.49281
C 1.0  		0.4476795901129016 		0.7513004220237511  0.7031378161433203 		Uiso   ? 		C 		0.49281
C 1.0  		0.7059391977088081 		1.004760035332221  0.9081961092663721 		Uiso   ? 		C 		0.49281
C 1.0  		0.6179327025709906 		1.0867111590931398  0.6987538112558618 		Uiso   ? 		C 		0.49281
C 1.0  		0.8710216290782937 		0.3366375502993425  0.9244593532037176 		Uiso   ? 		C 		0.49281
C 1.0  		0.7827785720455623 		0.419815487290215  0.7137442795807194 		Uiso   ? 		C 		0.49281
C 1.0  		1.0383239508463535 		0.6708214741387771  0.9072061726788816 		Uiso   ? 		C 		0.49281
C 1.0  		0.9493448152603372 		0.7525272352537051  0.7003094258933471 		Uiso   ? 		C 		0.49281
C 1.0  		0.20157733901195324 		1.0045146726862304  0.914418567816313 		Uiso   ? 		C 		0.49281
C 1.0  		1.119900228304204 		1.087692609677103  0.6977638746683713 		Uiso   ? 		C 		0.49281
C 1.0  		0.452781967362815 		0.1295514770831289  0.5356971133449109 		Uiso   ? 		C 		0.49574
C 1.0  		-0.1891763758502477 		0.0593777603297674  0.757584328455303 		Uiso   ? 		C 		0.49574
C 1.0  		0.6155298639525466 		0.45760133477279424  0.5379598255448894 		Uiso   ? 		C 		0.49574
C 1.0  		-0.014060061151163872 		0.3960153106291099  0.7523518064928527 		Uiso   ? 		C 		0.49574
C 1.0  		0.7866329370999537 		0.7930120718421828  0.5536573914322402 		Uiso   ? 		C 		0.49574
C 1.0  		0.1484359994439176 		0.7282363333006183  0.751786128442858 		Uiso   ? 		C 		0.49574
C 1.0  		0.9536365776432532 		0.12660712533123958  0.5349900157824176 		Uiso   ? 		C 		0.49574
C 1.0  		0.3152424239146237 		0.05888703503778585  0.7602712991927775 		Uiso   ? 		C 		0.49574
C 1.0  		1.1180691215118845 		0.45760133477279424  0.5331515621199351 		Uiso   ? 		C 		0.49574
C 1.0  		0.48372987630321207 		0.39331632152321133  0.7533417430803433 		Uiso   ? 		C 		0.49574
C 1.0  		0.28725696040297455 		0.7942388850721367  0.5489905475197846 		Uiso   ? 		C 		0.49574
C 1.0  		0.6472226490690767 		0.7245558936107567  0.7519275479553568 		Uiso   ? 		C 		0.49574
C 1.0  		0.7834286222143273 		0.4993129845912259  0.5833554890569581 		Uiso   ? 		C 		0.49470
C 1.0  		0.15088558527462828 		0.4301207184218275  0.7858682309550343 		Uiso   ? 		C 		0.49470
C 1.0  		0.9500036630519498 		0.8337422710766514  0.5799614207569904 		Uiso   ? 		C 		0.49470
C 1.0  		0.31852307697389853 		0.764550004907253  0.7919492699924764 		Uiso   ? 		C 		0.49470
C 1.0  		1.1188299047327663 		0.16758268721169892  0.5723247670820629 		Uiso   ? 		C 		0.49470
C 1.0  		0.48507766544995445 		0.09937187162626364  0.7853025529050396 		Uiso   ? 		C 		0.49470
C 1.0  		0.2816495149308589 		0.49955834723721665  0.5768501914820199 		Uiso   ? 		C 		0.49470
C 1.0  		0.6487259873201321 		0.43134753165178136  0.7903936553549913 		Uiso   ? 		C 		0.49470
C 1.0  		0.4463426924169885 		0.8280989302188635  0.5798200012444916 		Uiso   ? 		C 		0.49470
C 1.0  		-0.18024829855152436 		0.7652860928452253  0.7918078504799778 		Uiso   ? 		C 		0.49470
C 1.0  		0.6198789083804461 		0.16880950044165277  0.5748703183070388 		Uiso   ? 		C 		0.49470
C 1.0  		-0.017838429008873884 		0.09691824516635589  0.7886966212050074 		Uiso   ? 		C 		0.49470
C 1.0  		1.0861491404182335 		0.7566984002355482  0.6078210647192257 		Uiso   ? 		C 		0.49589
C 1.0  		-0.270127859417987 		0.8430660516243008  0.8302739578796124 		Uiso   ? 		C 		0.49589
C 1.0  		0.25185380261549084 		1.0889194229070567  0.618851786694121 		Uiso   ? 		C 		0.49589
C 1.0  		-0.10260063049373203 		0.1781332809893022  0.8335266066670816 		Uiso   ? 		C 		0.49589
C 1.0  		0.419144469644832 		0.42521346550201206  0.6226701135315846 		Uiso   ? 		C 		0.49589
C 1.0  		0.06378599189414533 		0.5113357542447738  0.8309810554421058 		Uiso   ? 		C 		0.49589
C 1.0  		0.5872638827567778 		0.7589066640494652  0.61262932814418 		Uiso   ? 		C 		0.49589
C 1.0  		0.23269842462739268 		0.8457650407301993  0.836637835942052 		Uiso   ? 		C 		0.49589
C 1.0  		0.7525347325760087 		0.0920109922465404  0.6240843086565713 		Uiso   ? 		C 		0.49589
C 1.0  		0.4030361692371001 		0.17837864363529296  0.8306982164171083 		Uiso   ? 		C 		0.49589
C 1.0  		0.9179487145156869 		0.4249681028560212  0.6271955379315416 		Uiso   ? 		C 		0.49589
C 1.0  		0.5650919753877861 		0.5135440180586908  0.8246171773796662 		Uiso   ? 		C 		0.49589
C 1.0  		0.286189298954463 		0.2183727549317892  0.673581138031101 		Uiso   ? 		C 		0.49775
C 1.0  		0.23603783625576555 		0.14059279615271372  0.8601134750168289 		Uiso   ? 		C 		0.49775
C 1.0  		0.4593779280028447 		0.5579546569830209  0.6716012648561197 		Uiso   ? 		C 		0.49775
C 1.0  		0.40190966788553517 		0.47404063205417607  0.8664773530792684 		Uiso   ? 		C 		0.49775
C 1.0  		0.6215452951436042 		0.885268426734714  0.6675000989936587 		Uiso   ? 		C 		0.49775
C 1.0  		0.567586604588671 		0.8109235449995094  0.8618105091668129 		Uiso   ? 		C 		0.49775
C 1.0  		0.7882137657556931 		0.21861811757778  0.6755610112060823 		Uiso   ? 		C 		0.49775
C 1.0  		0.7366494081644013 		0.143537147904603  0.8622347677043088 		Uiso   ? 		C 		0.49775
C 1.0  		0.9601996689378505 		0.55451957993915  0.6706113282686292 		Uiso   ? 		C 		0.49775
C 1.0  		-0.10168324291260247 		0.4757581705761115  0.8731240701667053 		Uiso   ? 		C 		0.49775
C 1.0  		1.120864330772567 		0.8847777014427324  0.6679243575311548 		Uiso   ? 		C 		0.49775
C 1.0  		0.06727733326581348 		0.8077338306016292  0.8564365676918638 		Uiso   ? 		C 		0.49775
C 1.0  		0.5886879287432131 		0.33761900088330554  0.9070647531663829 		Uiso   ? 		C 		0.55829
C 1.0  		0.49942408781711417 		0.423005201688095  0.7055419478557974 		Uiso   ? 		C 		0.55829
C 1.0  		0.7521894991319257 		0.6705761114927864  0.9104588214663506 		Uiso   ? 		C 		0.55829
C 1.0  		0.6669213045118076 		0.7537540484836589  0.7065318844432881 		Uiso   ? 		C 		0.55829
C 1.0  		0.9231851666201883 		1.002797134164295  0.9125801141538306 		Uiso   ? 		C 		0.55829
C 1.0  		0.8378447568323175 		1.089655510845029  0.7123300844557329 		Uiso   ? 		C 		0.55829
C 1.0  		0.08800414166682452 		0.33835508882127785  0.9121558556163346 		Uiso   ? 		C 		0.55829
C 1.0  		0.9980968553062404 		0.4207969378741781  0.7045520112683068 		Uiso   ? 		C 		0.55829
C 1.0  		0.25677862054145467 		0.6754833644126019  0.9131457922038251 		Uiso   ? 		C 		0.55829
C 1.0  		0.16931978550717705 		0.7576798508195113  0.7029963966308216 		Uiso   ? 		C 		0.55829
C 1.0  		0.42016398764817486 		1.0035332221022673  0.9121558556163346 		Uiso   ? 		C 		0.55829
C 1.0  		0.3386571985850834 		1.0921091373049368  0.7133200210432235 		Uiso   ? 		C 		0.55829
C 1.0  		0.6694168586257503 		0.13274119148100896  0.5314545279699512 		Uiso   ? 		C 		0.55566
C 1.0  		0.027865900511650842 		0.05913239768377662  0.7372199186554964 		Uiso   ? 		C 		0.55566
C 1.0  		0.8379524544595072 		0.46471685150652664  0.5441822840948303 		Uiso   ? 		C 		0.55566
C 1.0  		0.19678713086774613 		0.3952792226911375  0.744432313792928 		Uiso   ? 		C 		0.55566
C 1.0  		1.0038812271572932 		0.7974285994700168  0.5214137425825466 		Uiso   ? 		C 		0.55566
C 1.0  		0.3660916746002204 		0.7292177838845815  0.7524932260053513 		Uiso   ? 		C 		0.55566
C 1.0  		1.1703788745653327 		0.13298655412699972  0.533575820657431 		Uiso   ? 		C 		0.55566
C 1.0  		0.5325147856945476 		0.06207674943566592  0.7376441771929925 		Uiso   ? 		C 		0.55566
C 1.0  		0.33931903279270165 		0.46275395033860045  0.5406467962823639 		Uiso   ? 		C 		0.55566
C 1.0  		0.6974949896667191 		0.39331632152321133  0.749381996730381 		Uiso   ? 		C 		0.55566
C 1.0  		0.5056903810808425 		0.7989007753459614  0.5207066450200533 		Uiso   ? 		C 		0.55566
C 1.0  		-0.13399630892745962 		0.7277456080086369  0.751786128442858 		Uiso   ? 		C 		0.55566
C 1.0  		1.0019189839602118 		0.5032387869270784  0.5812341963694784 		Uiso   ? 		C 		0.55618
C 1.0  		0.369253267261632 		0.4338011581116891  0.8011415383048892 		Uiso   ? 		C 		0.55618
C 1.0  		1.1669649266232476 		0.8354598095985867  0.5771330305070173 		Uiso   ? 		C 		0.55618
C 1.0  		0.5368250202700378 		0.7672489940131515  0.7884137821800101 		Uiso   ? 		C 		0.55618
C 1.0  		0.3374225282864846 		0.16954558837962508  0.5825069719819662 		Uiso   ? 		C 		0.55618
C 1.0  		0.7006325106055463 		0.09912650898027285  0.7895451382799994 		Uiso   ? 		C 		0.55618
C 1.0  		0.5017411900190831 		0.5020119736971244  0.5792543231944971 		Uiso   ? 		C 		0.55618
C 1.0  		-0.12932968981404555 		0.4357640592796153  0.7967575334174308 		Uiso   ? 		C 		0.55618
C 1.0  		0.6634442309928629 		0.8334969084306605  0.5819412939319716 		Uiso   ? 		C 		0.55618
C 1.0  		0.0382179914717759 		0.7704387084110316  0.785585391930037 		Uiso   ? 		C 		0.55618
C 1.0  		0.8363406552933725 		0.1678280498576897  0.5820827134444702 		Uiso   ? 		C 		0.55618
C 1.0  		0.1993529199804492 		0.10207086073216214  0.7942119821924549 		Uiso   ? 		C 		0.55618
C 1.0  		0.3059444898381762 		0.7623417410933361  0.631155284281504 		Uiso   ? 		C 		0.55720
C 1.0  		-0.04947092898052702 		0.8492001177740701  0.8249000164046635 		Uiso   ? 		C 		0.55720
C 1.0  		0.4690159016203995 		0.09274708018451272  0.6124879086316815 		Uiso   ? 		C 		0.55720
C 1.0  		0.12069599242513096 		0.1840219844930808  0.8193846554172158 		Uiso   ? 		C 		0.55720
C 1.0  		0.6385898765932198 		0.4259495534399843  0.6165890744941425 		Uiso   ? 		C 		0.55720
C 1.0  		0.28481096160824787 		0.5182059083325156  0.8311224749546043 		Uiso   ? 		C 		0.55720
C 1.0  		0.8038242377060008 		0.7593973893414467  0.6245085671940672 		Uiso   ? 		C 		0.55720
C 1.0  		0.4539840279589934 		0.8501815683580332  0.8249000164046635 		Uiso   ? 		C 		0.55720
C 1.0  		0.9706394597995549 		0.09176562960054963  0.617579011081633 		Uiso   ? 		C 		0.55720
C 1.0  		0.6225649101220481 		0.18353125920109925  0.8189603968797199 		Uiso   ? 		C 		0.55720
C 1.0  		1.140386579122384 		0.42913926783786444  0.6195588842566142 		Uiso   ? 		C 		0.55720
C 1.0  		-0.2147381594387402 		0.5152615565806262  0.827586987142138 		Uiso   ? 		C 		0.55720
C 1.0  		0.5050717716995744 		0.22180783197566006  0.6559036989687689 		Uiso   ? 		C 		0.55704
C 1.0  		0.4546508777605309 		0.1447639611345569  0.8756696213916811 		Uiso   ? 		C 		0.55704
C 1.0  		0.6710903548108093 		0.5542742172931593  0.6617018989812139 		Uiso   ? 		C 		0.55704
C 1.0  		0.620154670113658 		0.47747570909804693  0.8673258701542604 		Uiso   ? 		C 		0.55704
C 1.0  		0.8410411666831199 		0.8899303170085386  0.6741468160810956 		Uiso   ? 		C 		0.55704
C 1.0  		-0.21641232089384516 		0.8106781823535185  0.8824577579916167 		Uiso   ? 		C 		0.55704
C 1.0  		1.0042681275696563 		0.22107174403768773  0.6527924696937984 		Uiso   ? 		C 		0.55704
C 1.0  		-0.050578536871337884 		0.14108352144469527  0.8743968457791932 		Uiso   ? 		C 		0.55704
C 1.0  		0.17083154807907963 		0.5550103052311317  0.6655202258186776 		Uiso   ? 		C 		0.55704
C 1.0  		0.11570300100335434 		0.47747570909804693  0.868740065279247 		Uiso   ? 		C 		0.55704
C 1.0  		0.34079763405112684 		0.8877220531946217  0.6713184258311224 		Uiso   ? 		C 		0.55704
C 1.0  		0.28117392401104924 		0.8096967317695555  0.8800536262791395 		Uiso   ? 		C 		0.55704
C 1.0  		0.5347931426941746 		0.28167631759740897  0.9093274653663613 		Uiso   ? 		C 		0.47935
C 1.0  		0.44680424280205283 		0.3670625184021985  0.7018650405308323 		Uiso   ? 		C 		0.47935
C 1.0  		0.7007876540828251 		0.6153695161448621  0.9089032068288654 		Uiso   ? 		C 		0.47935
C 1.0  		0.6166235772926347 		0.7007557169496517  0.6959254210058887 		Uiso   ? 		C 		0.47935
C 1.0  		0.8724536614335083 		0.9480812641083521  0.9216309629537446 		Uiso   ? 		C 		0.47935
C 1.0  		0.7860179314385578 		1.0344489154971048  0.7051176893183013 		Uiso   ? 		C 		0.47935
C 1.0  		1.0351176881167685 		0.28192168024339975  0.9159741824537984 		Uiso   ? 		C 		0.47935
C 1.0  		0.9446511213244452 		0.36362744135832764  0.7041277527308109 		Uiso   ? 		C 		0.47935
C 1.0  		0.20372499755888634 		0.6178231426047699  0.9118730165913372 		Uiso   ? 		C 		0.47935
C 1.0  		1.120054462509571 		0.7029639807635687  0.692531352705921 		Uiso   ? 		C 		0.47935
C 1.0  		0.3694982211523593 		0.9497988026302876  0.9220552214912404 		Uiso   ? 		C 		0.47935
C 1.0  		0.2859475431565735 		1.0364118166650311  0.7069561429807839 		Uiso   ? 		C 		0.47935
C 1.0  		0.6158776948694887 		1.076651290607518  0.534848596269919 		Uiso   ? 		C 		0.48329
C 1.0  		-0.02459839539909747 		0.00392580233585239  0.744432313792928 		Uiso   ? 		C 		0.48329
C 1.0  		0.7829054071353724 		0.4090195308666209  0.5502633231322726 		Uiso   ? 		C 		0.48329
C 1.0  		0.1434400049222475 		0.33958190205123173  0.7437252162304346 		Uiso   ? 		C 		0.48329
C 1.0  		0.9560107022471938 		0.7441849052900187  0.5352728548074149 		Uiso   ? 		C 		0.48329
C 1.0  		0.3128014897227383 		0.6727843753067033  0.7509376113678661 		Uiso   ? 		C 		0.48329
C 1.0  		1.118596573255724 		1.0761605653155364  0.5315959474824499 		Uiso   ? 		C 		0.48329
C 1.0  		0.48089165285026947 		0.005152615565806262  0.7442908942804293 		Uiso   ? 		C 		0.48329
C 1.0  		0.2857506190520256 		0.40533909117675926  0.5433337670198384 		Uiso   ? 		C 		0.48329
C 1.0  		0.645054765478555 		0.33688291294533323  0.7478263820928956 		Uiso   ? 		C 		0.48329
C 1.0  		0.4560870654466747 		0.7451663558739818  0.5325858840699405 		Uiso   ? 		C 		0.48329
C 1.0  		-0.18567638283975435 		0.6715575620767495  0.7570186504053082 		Uiso   ? 		C 		0.48329
C 1.0  		0.9494787597720478 		0.44680537834920014  0.5772744500195158 		Uiso   ? 		C 		0.48247
C 1.0  		0.3209336902842892 		0.381784277161645  0.7878481041300154 		Uiso   ? 		C 		0.48247
C 1.0  		1.1197318722301368 		0.7822161154185888  0.5621425621821596 		Uiso   ? 		C 		0.48247
C 1.0  		0.48402555442807904 		0.7117970360192365  0.7845954553425464 		Uiso   ? 		C 		0.48247
C 1.0  		0.28620030406428126 		0.11384826773971932  0.5723247670820629 		Uiso   ? 		C 		0.48247
C 1.0  		0.652223123214755 		0.047354990676219455  0.7735647333676511 		Uiso   ? 		C 		0.48247
C 1.0  		0.45003704438420433 		0.44705074099519093  0.5747288987945401 		Uiso   ? 		C 		0.48247
C 1.0  		-0.18163843662048085 		0.3812935518696634  0.7872824260800209 		Uiso   ? 		C 		0.48247
C 1.0  		0.6168727188393249 		0.7790264010207086  0.5689306987820951 		Uiso   ? 		C 		0.48247
C 1.0  		-0.01340514137250215 		0.7135145745411718  0.7795043528925947 		Uiso   ? 		C 		0.48247
C 1.0  		0.7837865489691757 		0.11286681715575622  0.5765673524570226 		Uiso   ? 		C 		0.48247
C 1.0  		0.1529457545540722 		0.05005397978211797  0.7775244797176135 		Uiso   ? 		C 		0.48247
C 1.0  		0.2521066448571541 		0.7056629698694671  0.6308724452565068 		Uiso   ? 		C 		0.47782
C 1.0  		-0.09730858454519425 		0.7964471488860536  0.8384762896045346 		Uiso   ? 		C 		0.47782
C 1.0  		0.4206510383137589 		1.0393561684169201  0.6247914062190645 		Uiso   ? 		C 		0.47782
C 1.0  		0.07084731727320139 		0.12979683972911965  0.831688153004599 		Uiso   ? 		C 		0.47782
C 1.0  		0.5869098026809252 		0.369761507508097  0.618851786694121 		Uiso   ? 		C 		0.47782
C 1.0  		0.23313088769595325 		0.46201786240062814  0.8370620944795478 		Uiso   ? 		C 		0.47782
C 1.0  		0.7514826215541333 		0.7044361566395133  0.6277612159815363 		Uiso   ? 		C 		0.47782
C 1.0  		0.40341686949947436 		0.7979193247619982  0.8381934505795371 		Uiso   ? 		C 		0.47782
C 1.0  		0.9198473941838408 		1.0386200804789478  0.6277612159815363 		Uiso   ? 		C 		0.47782
C 1.0  		0.5737217447637496 		0.13004220237511044  0.8308396359296071 		Uiso   ? 		C 		0.47782
C 1.0  		1.0877009954164583 		0.3722151339680047  0.6178618501066303 		Uiso   ? 		C 		0.47782
C 1.0  		-0.2653381872436914 		0.4625085876926097  0.840314743267017 		Uiso   ? 		C 		0.47782
C 1.0  		0.45590871050980203 		0.16512906075179118  0.6597220258062326 		Uiso   ? 		C 		0.48233
C 1.0  		0.39987326167674214 		0.08833055255667878  0.8708613579667269 		Uiso   ? 		C 		0.48233
C 1.0  		0.6184047711048835 		0.4973500834232997  0.6560451184812676 		Uiso   ? 		C 		0.48233
C 1.0  		0.5672894655808349 		0.42104230052016883  1.8650405308322822 		Uiso   ? 		C 		0.48233
C 1.0  		0.7876611713921892 		0.8337422710766514  0.672308362418613 		Uiso   ? 		C 		0.48233
C 1.0  		0.7339061733867376 		0.7576798508195113  0.8708613579667269 		Uiso   ? 		C 		0.48233
C 1.0  		0.9532167265515025 		0.16316615958386496  0.6580249916562487 		Uiso   ? 		C 		0.48233
C 1.0  		-0.1024951726785463 		0.0861222887427618  0.8725583921167107 		Uiso   ? 		C 		0.48233
C 1.0  		1.1201598066657676 		0.4983315340072628  0.6594391867812354 		Uiso   ? 		C 		0.48233
C 1.0  		0.06432522767683801 		0.42104230052016883  0.8710027774792255 		Uiso   ? 		C 		0.48233
C 1.0  		0.28759725958709337 		0.8310432819707528  0.6683486160686507 		Uiso   ? 		C 		0.48233
C 1.0  		0.230801660478164 		0.7539994111296496  0.8748211043166892 		Uiso   ? 		C 		0.48233
C 1.0  		0.4830889970592957 		0.22671508489547554  0.9161156019662969 		Uiso   ? 		C 		0.52704
C 1.0  		0.3956718289932981 		0.3111198351163019  0.699885167355851 		Uiso   ? 		C 		0.52704
C 1.0  		0.6478567108591375 		0.5579546569830209  0.9081961092663721 		Uiso   ? 		C 		0.52704
C 1.0  		0.5646171310719778 		0.646039846893709  0.6898443819684466 		Uiso   ? 		C 		0.52704
C 1.0  		0.8203662024222507 		0.8953282952203357  0.9311060702911544 		Uiso   ? 		C 		0.52704
C 1.0  		0.7327277465610756 		0.9780155069192268  0.7000265868683497 		Uiso   ? 		C 		0.52704
C 1.0  		0.9821626731704968 		0.22573363431151244  0.9206410263662539 		Uiso   ? 		C 		0.52704
C 1.0  		0.8938779491694853 		0.30670330748846797  0.7092188551807624 		Uiso   ? 		C 		0.52704
C 1.0  		0.15041074095881996 		0.5626165472568457  0.9106002409788493 		Uiso   ? 		C 		0.52704
C 1.0  		1.0680392186660659 		0.6465305721856904  0.6870159917184733 		Uiso   ? 		C 		0.52704
C 1.0  		0.31962547427784554 		0.8968004710962804  0.9329445239536371 		Uiso   ? 		C 		0.52704
C 1.0  		0.2349947501747161 		0.979978408087153  0.7038449137058135 		Uiso   ? 		C 		0.52704
C 1.0  		0.5634944117493412 		1.0194817940916676  0.5310302694324552 		Uiso   ? 		C 		0.53014
C 1.0  		-0.07282816196299158 		-0.04833644126018256  0.7581500065052975 		Uiso   ? 		C 		0.53014
C 1.0  		0.7303096338428953 		0.35185003435077045  0.552526035332251 		Uiso   ? 		C 		0.53014
C 1.0  		0.09069748014830531 		0.2833938561193444  0.742735279642944 		Uiso   ? 		C 		0.53014
C 1.0  		0.9068893080257017 		0.6897143978800668  0.5481420304447926 		Uiso   ? 		C 		0.53014
C 1.0  		0.2604598735708708 		0.6178231426047699  0.7561701333303165 		Uiso   ? 		C 		0.53014
C 1.0  		1.0662132901355763 		1.018991068799686  0.5344243377324229 		Uiso   ? 		C 		0.53014
C 1.0  		0.4334877752531092 		-0.04588281480027481  0.7587156845552923 		Uiso   ? 		C 		0.53014
C 1.0  		0.23435757162577284 		0.35185003435077045  0.5506875816697685 		Uiso   ? 		C 		0.53014
C 1.0  		0.5924020511180614 		0.28044950436745514  0.7507961918553675 		Uiso   ? 		C 		0.53014
C 1.0  		0.40730084115639276 		0.6909412111100206  0.5437580255573343 		Uiso   ? 		C 		0.53014
C 1.0  		-0.23726664633860012 		0.6151241534988714  0.7598470406552815 		Uiso   ? 		C 		0.53014
C 1.0  		0.8960001564448206 		0.3891451565413682  0.5767087719695213 		Uiso   ? 		C 		0.52740
C 1.0  		0.2684693943735409 		0.3265776818137207  0.7785144163051041 		Uiso   ? 		C 		0.52740
C 1.0  		1.071909490765206 		0.7265187947786829  0.5518189377697578 		Uiso   ? 		C 		0.52740
C 1.0  		0.43186355910310903 		0.6563450780253214  0.7845954553425464 		Uiso   ? 		C 		0.52740
C 1.0  		0.23344536230647356 		1.0567769162822653  0.5676579231696073 		Uiso   ? 		C 		0.52740
C 1.0  		0.5998069707491751 		-0.010305231131612524  0.7691807284801928 		Uiso   ? 		C 		0.52740
C 1.0  		0.39695934967905167 		0.39061733241731283  0.5775572890445132 		Uiso   ? 		C 		0.52740
C 1.0  		0.7659658288649864 		0.3258415938757484  0.7813428065550773 		Uiso   ? 		C 		0.52740
C 1.0  		0.5713724551702826 		0.7262734321326921  0.5545059085072321 		Uiso   ? 		C 		0.52740
C 1.0  		-0.06699762683576255 		0.6573265286092845  0.7741304114176458 		Uiso   ? 		C 		0.52740
C 1.0  		0.7312857643519775 		1.058003729512219  0.5720419280570656 		Uiso   ? 		C 		0.52740
C 1.0  		0.10250775233032261 		-0.006624791441750908  0.7693221479926915 		Uiso   ? 		C 		0.52740
C 1.0  		1.199645171651757 		0.649229561291589  0.6314381233065013 		Uiso   ? 		C 		0.52804
C 1.0  		-0.1466753382844483 		0.7414859161841202  0.8476685579169472 		Uiso   ? 		C 		0.52804
C 1.0  		0.3686117227476697 		0.9841495730689961  0.6325694794064906 		Uiso   ? 		C 		0.52804
C 1.0  		0.018987622534009468 		0.07409951908921386  0.8401733237545184 		Uiso   ? 		C 		0.52804
C 1.0  		0.5331946374587839 		0.31332809893021885  0.621255918406598 		Uiso   ? 		C 		0.52804
C 1.0  		0.18089435605727086 		0.4038669153008146  0.8376277725295426 		Uiso   ? 		C 		0.52804
C 1.0  		0.6972438679510364 		0.6465305721856904  0.6304481867190108 		Uiso   ? 		C 		0.52804
C 1.0  		0.35293072383055624 		0.7436941799980372  0.8492241725544324 		Uiso   ? 		C 		0.52804
C 1.0  		0.8685923006162053 		0.9824320345470605  0.6369534842939489 		Uiso   ? 		C 		0.52804
C 1.0  		0.5242082395430304 		0.07606242025714006  0.8396076457045237 		Uiso   ? 		C 		0.52804
C 1.0  		1.0343122025026794 		0.31430954951418194  0.6153162988816545 		Uiso   ? 		C 		0.52804
C 1.0  		0.6803448690679624 		0.40533909117675926  0.8431431335169901 		Uiso   ? 		C 		0.52804
C 1.0  		0.4057781871336609 		1.1107566984002357  0.6724497819311117 		Uiso   ? 		C 		0.53061
C 1.0  		0.3473191553525452 		0.03336931985474532  0.8674672896667591 		Uiso   ? 		C 		0.53061
C 1.0  		0.5656951156763734 		0.4416527627833939  0.6595806062937339 		Uiso   ? 		C 		0.53061
C 1.0  		0.5144899997388762 		0.36559034252625383  1.857262457644856 		Uiso   ? 		C 		0.53061
C 1.0  		0.734101555274361 		0.7780449504367455  0.6751367526685862 		Uiso   ? 		C 		0.53061
C 1.0  		0.6841473086482567 		0.7032093434095594  1.8592423308198374 		Uiso   ? 		C 		0.53061
C 1.0  		0.9066503926597946 		1.1112474236922172  0.6724497819311117 		Uiso   ? 		C 		0.53061
C 1.0  		-0.15541731827938585 		0.030424968102856022  0.8667601921042657 		Uiso   ? 		C 		0.53061
C 1.0  		1.0673033997557924 		0.4436156639513201  0.663681772156195 		Uiso   ? 		C 		0.53061
C 1.0  		0.012220173419884378 		0.3648542545882815  0.8707199384542281 		Uiso   ? 		C 		0.53061
C 1.0  		0.23467511398625376 		0.7753459613308471  0.6706113282686292 		Uiso   ? 		C 		0.53061
C 1.0  		0.1821709852921951 		0.7005103543036608  0.8636489628292954 		Uiso   ? 		C 		0.53061
C 1.0  		0.5321808170032947 		0.3346746491314163  0.9086203678038681 		Uiso   ? 		C 		0.50688
C 1.0  		0.44305492993581286 		0.41736186083030724  0.7131786015307249 		Uiso   ? 		C 		0.50688
C 1.0  		0.6956495180465749 		0.6671410344489155  0.905367719016399 		Uiso   ? 		C 		0.50688
C 1.0  		0.6118775522556116 		0.7520365099617234  0.7032792356558188 		Uiso   ? 		C 		0.50688
C 1.0  		0.8673965381878591 		0.9978898812444794  1.9104361943443509 		Uiso   ? 		C 		0.50688
C 1.0  		0.7815501352647286 		1.0867111590931398  0.7104916307932504 		Uiso   ? 		C 		0.50688
C 1.0  		1.033232643356326 		0.3346746491314163  0.9212067044162486 		Uiso   ? 		C 		0.50688
C 1.0  		0.9425207170462407 		0.41588968495436257  0.7126129234807301 		Uiso   ? 		C 		0.50688
C 1.0  		0.2012353516268872 		0.6710668367847679  0.9076304312163775 		Uiso   ? 		C 		0.50688
C 1.0  		1.113665457161928 		0.7535086858376682  0.6994609088183551 		Uiso   ? 		C 		0.50688
C 1.0  		0.3644410979067101 		0.9996074197664148  0.910741660491348 		Uiso   ? 		C 		0.50688
C 1.0  		0.28156075977334505 		1.0867111590931398  0.7164312503181939 		Uiso   ? 		C 		0.50688
C 1.0  		0.613481478711956 		0.12881538914515656  0.5267876840574955 		Uiso   ? 		C 		0.50474
C 1.0  		-0.029981890953109235 		0.055206595347924235  0.7387755332929816 		Uiso   ? 		C 		0.50474
C 1.0  		0.7805537150619904 		0.45956423594072043  0.5392326011573774 		Uiso   ? 		C 		0.50474
C 1.0  		0.1414892214709404 		0.39135342035528514  0.7384926942679844 		Uiso   ? 		C 		0.50474
C 1.0  		0.9510850563832733 		0.7959564235940721  0.5320202060199458 		Uiso   ? 		C 		0.50474
C 1.0  		0.3110960657891929 		0.7250466189027384  0.7455636698929172 		Uiso   ? 		C 		0.50474
C 1.0  		1.1132254946855777 		0.128324663853175  0.5303231718699619 		Uiso   ? 		C 		0.50474
C 1.0  		0.47425728798486483 		0.055206595347924235  0.7367956601180005 		Uiso   ? 		C 		0.50474
C 1.0  		0.2817888160134562 		0.45563843360486805  0.5341414987074257 		Uiso   ? 		C 		0.50474
C 1.0  		0.6425891912691402 		0.3888997938953774  0.7399068893929709 		Uiso   ? 		C 		0.50474
C 1.0  		0.45036839996145256 		0.7962017862400629  0.5269291035699942 		Uiso   ? 		C 		0.50474
C 1.0  		-0.19155939505213743 		0.7201393659829228  0.7468364455054051 		Uiso   ? 		C 		0.50474
C 1.0  		0.9447896758030411 		0.4973500834232997  0.580527098806985 		Uiso   ? 		C 		0.50187
C 1.0  		0.3111337234105665 		0.42423201491804896  0.803687089529865 		Uiso   ? 		C 		0.50187
C 1.0  		1.1082167098780413 		0.827608204926882  0.5710519914695751 		Uiso   ? 		C 		0.50187
C 1.0  		0.48080862756564274 		0.7652860928452253  0.7899693968174953 		Uiso   ? 		C 		0.50187
C 1.0  		0.2821903575805433 		0.16660123662773582  0.5771330305070173 		Uiso   ? 		C 		0.50187
C 1.0  		0.6451790521044276 		0.09446461870644814  0.7857268114425356 		Uiso   ? 		C 		0.50187
C 1.0  		0.4459044181415854 		0.49955834723721665  0.5769916109945186 		Uiso   ? 		C 		0.50187
C 1.0  		-0.18583680155396415 		0.432819707527726  0.7943534017049536 		Uiso   ? 		C 		0.50187
C 1.0  		0.606126504385947 		0.8263813916969281  0.5754359963570334 		Uiso   ? 		C 		0.50187
C 1.0  		-0.018390049450398516 		0.7596427519874375  0.7960504358549375 		Uiso   ? 		C 		0.50187
C 1.0  		0.7817547527272677 		0.16660123662773582  0.5776987085570119 		Uiso   ? 		C 		0.50187
C 1.0  		0.14147873564714547 		0.0929924428305035  0.7926563675549698 		Uiso   ? 		C 		0.50187
C 1.0  		0.24915035161221585 		0.7566984002355482  0.623377211094078 		Uiso   ? 		C 		0.50441
C 1.0  		-0.10626506720648726 		0.8435567769162824  0.8264556310421487 		Uiso   ? 		C 		0.50441
C 1.0  		0.4150879219328497 		1.0911276867209736  0.6211144988940994 		Uiso   ? 		C 		0.50441
C 1.0  		0.0627824622695065 		0.1791147315732653  0.8233444017671783 		Uiso   ? 		C 		0.50441
C 1.0  		0.5811582678502708 		0.4203062125821965  0.6100837769192042 		Uiso   ? 		C 		0.50441
C 1.0  		0.2273224117972824 		0.5132986554127  0.8297082798296178 		Uiso   ? 		C 		0.50441
C 1.0  		0.7468921456214233 		0.7564530375895575  0.6260641818315523 		Uiso   ? 		C 		0.50441
C 1.0  		0.3994879358063372 		0.8487093924820887  0.8314053139796016 		Uiso   ? 		C 		0.50441
C 1.0  		0.9161068789404487 		1.0906369614289921  0.6250742452440617 		Uiso   ? 		C 		0.50441
C 1.0  		0.5657050332052234 		0.17690646775934832  0.8183947188297253 		Uiso   ? 		C 		0.50441
C 1.0  		1.08369104893272 		0.4249681028560212  0.6170133330316384 		Uiso   ? 		C 		0.50441
C 1.0  		-0.2709276964931441 		0.5091274904308569  0.8249000164046635 		Uiso   ? 		C 		0.50441
C 1.0  		0.44884936529973835 		0.21518304053390913  0.6527924696937984 		Uiso   ? 		C 		0.50747
C 1.0  		0.3972938053312944 		0.14181960938266758  0.8782151726166569 		Uiso   ? 		C 		0.50747
C 1.0  		0.6157026350005549 		0.5505937776032978  0.6549137623812784 		Uiso   ? 		C 		0.50747
C 1.0  		0.5630253619564873 		0.47158700559426836  0.8749625238291879 		Uiso   ? 		C 		0.50747
C 1.0  		0.7862011069764056 		0.8864952399646678  0.6670758404561627 		Uiso   ? 		C 		0.50747
C 1.0  		0.726838030553826 		0.8060162920796939  0.8834476945791072 		Uiso   ? 		C 		0.50747
C 1.0  		0.945217610238672 		0.2134655020119737  0.6536409867687905 		Uiso   ? 		C 		0.50747
C 1.0  		-0.10666946588944523 		0.13642163117087058  0.882740597016614 		Uiso   ? 		C 		0.50747
C 1.0  		1.1175146116294554 		0.5508391402492885  0.6533581477437931 		Uiso   ? 		C 		0.50747
C 1.0  		0.06164716329509365 		0.473059181470213  0.8787808506666517 		Uiso   ? 		C 		0.50747
C 1.0  		0.28504187496422984 		0.8833055255667878  0.6624089965437071 		Uiso   ? 		C 		0.50747
C 1.0  		0.22395480544042984 		0.8040533909117676  0.882740597016614 		Uiso   ? 		C 		0.50747
C 1.0  		0.7567446709142552 		0.4990676219452351  0.910741660491348 		Uiso   ? 		C 		0.55807
C 1.0  		0.6678729409873831 		0.583963097458043  0.7087945966432664 		Uiso   ? 		C 		0.55807
C 1.0  		0.920392992784433 		0.8310432819707528  0.90946888487886 		Uiso   ? 		C 		0.55807
C 1.0  		0.8341762294387003 		0.9127490430856807  0.7177040259306818 		Uiso   ? 		C 		0.55807
C 1.0  		0.08697762790056981 		0.16758268721169892  0.9029635873039218 		Uiso   ? 		C 		0.55807
C 1.0  		1.0015238375360578 		0.24830699774266368  0.7008751039433417 		Uiso   ? 		C 		0.55807
C 1.0  		0.25439383180466263 		0.500294435175189  0.9081961092663721 		Uiso   ? 		C 		0.55807
C 1.0  		0.16716276104245087 		0.5795465698302091  0.7083703381057705 		Uiso   ? 		C 		0.55807
C 1.0  		0.4246228725401673 		0.8369319854745314  0.9183783141662754 		Uiso   ? 		C 		0.55807
C 1.0  		0.3342613902610291 		0.9154480321915792  0.7202495771556576 		Uiso   ? 		C 		0.55807
C 1.0  		0.5851596763541727 		0.16439297281381884  0.900418036078946 		Uiso   ? 		C 		0.55807
C 1.0  		0.5038565798405628 		0.25125134949455297  0.7072389820057813 		Uiso   ? 		C 		0.55807
C 1.0  		0.8377430320371384 		0.29345372460496616  0.5414953133573558 		Uiso   ? 		C 		0.55842
C 1.0  		0.19528517216570435 		0.22058101874570618  0.7404725674429655 		Uiso   ? 		C 		0.55842
C 1.0  		1.0051745100409675 		0.623221120816567  0.5270705230824928 		Uiso   ? 		C 		0.55842
C 1.0  		0.36485914713852463 		0.5537834920011778  0.7557458747928205 		Uiso   ? 		C 		0.55842
C 1.0  		1.1707593151846953 		0.9539699676121308  0.5338586596824283 		Uiso   ? 		C 		0.55842
C 1.0  		0.5331669787002156 		0.8887035037785848  0.7397654698804722 		Uiso   ? 		C 		0.55842
C 1.0  		0.33725413988738356 		0.29075473549906766  0.5460207377573129 		Uiso   ? 		C 		0.55842
C 1.0  		0.6996493520085187 		0.22720581018745709  0.7445737333054265 		Uiso   ? 		C 		0.55842
C 1.0  		0.5076452062040897 		0.6234664834625577  0.5270705230824928 		Uiso   ? 		C 		0.55842
C 1.0  		-0.13480385604449635 		0.5523113161252331  0.748533479655389 		Uiso   ? 		C 		0.55842
C 1.0  		0.6719485938369518 		0.9588772205319462  0.5308888499199566 		Uiso   ? 		C 		0.55842
C 1.0  		0.03151055117562801 		0.8891942290705664  0.7425938601304454 		Uiso   ? 		C 		0.55842
C 1.0  		1.167874896130543 		0.663460594759054  0.5840625866194514 		Uiso   ? 		C 		0.56034
C 1.0  		0.5338925714297058 		0.5918147021297478  0.7912421724299832 		Uiso   ? 		C 		0.56034
C 1.0  		0.33295736191054814 		0.9927372656786733  0.5860424597944326 		Uiso   ? 		C 		0.56034
C 1.0  		0.7048853818020977 		-0.07213661792128767  0.7898279773049967 		Uiso   ? 		C 		0.56034
C 1.0  		0.5026094925580984 		0.3278044950436746  0.5737389622070496 		Uiso   ? 		C 		0.56034
C 1.0  		-0.13330051779344093 		0.2591029541662578  0.7984545675674147 		Uiso   ? 		C 		0.56034
C 1.0  		0.6696752524312444 		0.6632152321130631  0.5822241329569688 		Uiso   ? 		C 		0.56034
C 1.0  		0.03923304549225637 		0.5952497791736187  0.7860096504675329 		Uiso   ? 		C 		0.56034
C 1.0  		0.829939005643886 		0.9922465403866915  0.5890122695569044 		Uiso   ? 		C 		0.56034
C 1.0  		0.20513488935158733 		-0.06698400235548141  0.7923735285299724 		Uiso   ? 		C 		0.56034
C 1.0  		1.0004410969807545 		0.3273137697516931  0.5716176695195696 		Uiso   ? 		C 		0.56034
C 1.0  		0.36597037439035324 		0.26106585533418397  0.7957675968299401 		Uiso   ? 		C 		0.56034
C 1.0  		0.4704939835928013 		0.9206006477573855  0.6226701135315846 		Uiso   ? 		C 		0.56156
C 1.0  		0.12094209854689403 		0.006870154087741683  0.8227787237171835 		Uiso   ? 		C 		0.56156
C 1.0  		0.6346278462366722 		0.2510059868485622  0.6181446891316277 		Uiso   ? 		C 		0.56156
C 1.0  		0.28597276711019337 		0.34203552851113944  0.8305567969046097 		Uiso   ? 		C 		0.56156
C 1.0  		0.8030759528029399 		0.5896064383158308  0.6236600501190752 		Uiso   ? 		C 		0.56156
C 1.0  		0.4526047490158325 		0.6757287270585927  0.8331023481295855 		Uiso   ? 		C 		0.56156
C 1.0  		0.97063011056565 		0.9196191971734224  0.6209730793816007 		Uiso   ? 		C 		0.56156
C 1.0  		0.6218888403867402 		0.01005986848562175  0.8171219432172373 		Uiso   ? 		C 		0.56156
C 1.0  		1.138606391557148 		0.25345961330846994  0.6120636500941854 		Uiso   ? 		C 		0.56156
C 1.0  		-0.21488184317024464 		0.3449798802630288  0.8331023481295855 		Uiso   ? 		C 		0.56156
C 1.0  		0.30655215875969327 		0.590587888899794  0.6205488208441048 		Uiso   ? 		C 		0.56156
C 1.0  		-0.04615782888674247 		0.6781823535185003  0.8232029822546796 		Uiso   ? 		C 		0.56156
C 1.0  		0.6735534942152757 		0.3832564530375896  0.6618433184937125 		Uiso   ? 		C 		0.56040
C 1.0  		0.6203044893450839 		0.30523113161252335  0.8663359335667699 		Uiso   ? 		C 		0.56040
C 1.0  		0.8378633583250262 		0.7140052998331535  0.6628332550812032 		Uiso   ? 		C 		0.56040
C 1.0  		-0.2136468809036004 		0.639415055451958  0.8751039433416865 		Uiso   ? 		C 		0.56040
C 1.0  		1.0068656014717223 		1.0481892236725883  0.6576007331187529 		Uiso   ? 		C 		0.56040
C 1.0  		-0.04837603108436959 		-0.02748061635096673  0.8721341335792148 		Uiso   ? 		C 		0.56040
C 1.0  		0.17316321010181734 		0.3820296398076357  0.6609948014187206 		Uiso   ? 		C 		0.56040
C 1.0  		0.11756801571315287 		0.302286779860634  0.8691643238167429 		Uiso   ? 		C 		0.56040
C 1.0  		0.3374578001118316 		0.7157228383550889  0.6683486160686507 		Uiso   ? 		C 		0.56040
C 1.0  		0.2841518541736233 		0.6384336048679949  0.8751039433416865 		Uiso   ? 		C 		0.56040
C 1.0  		0.505077696565406 		1.0467170477966434  0.6527924696937984 		Uiso   ? 		C 		0.56040
C 1.0  		0.45027266468217236 		-0.02846206693492983  0.8739725872416972 		Uiso   ? 		C 		0.56040
C 1.0  		0.6999495587663156 		0.44582392776523705  0.9059333970663936 		Uiso   ? 		C 		0.50836
C 1.0  		0.6102037964275411 		0.5319462165079989  0.7119058259182369 		Uiso   ? 		C 		0.50836
C 1.0  		0.8607304238830242 		0.7809893021886348  0.9055091385288976 		Uiso   ? 		C 		0.50836
C 1.0  		0.7767612420194677 		0.8629404259495534  0.7203909966681563 		Uiso   ? 		C 		0.50836
C 1.0  		1.0317172937484391 		1.111492786338208  0.9063576556038896 		Uiso   ? 		C 		0.50836
C 1.0  		0.9472874050789205 		0.19678084208460106  0.7107744698182477 		Uiso   ? 		C 		0.50836
C 1.0  		0.19762279137930722 		0.44582392776523705  0.9096103043913588 		Uiso   ? 		C 		0.50836
C 1.0  		1.1104209361909905 		0.5290018647561096  0.7087945966432664 		Uiso   ? 		C 		0.50836
C 1.0  		0.3676569371881781 		0.7858965551084504  0.9120144361038358 		Uiso   ? 		C 		0.50836
C 1.0  		0.27747507573593727 		0.8639218765335166  0.7179868649556791 		Uiso   ? 		C 		0.50836
C 1.0  		0.5280915136048693 		1.1127195995681618  0.9005594555914448 		Uiso   ? 		C 		0.50836
C 1.0  		0.44862343521264214 		0.20070664442045344  0.7162898308056953 		Uiso   ? 		C 		0.50836
C 1.0  		0.7824594228180897 		0.23898321719501425  0.5410710548198598 		Uiso   ? 		C 		0.50912
C 1.0  		0.1393159489844985 		0.168564137795662  0.7360885625555071 		Uiso   ? 		C 		0.50912
C 1.0  		0.9492622279277783 		0.5704681519285505  0.5331515621199351 		Uiso   ? 		C 		0.50912
C 1.0  		0.30901260371619965 		0.5020119736971244  0.7553216162553245 		Uiso   ? 		C 		0.50912
C 1.0  		1.1136707000738253 		0.9026891746000589  0.5262220060075009 		Uiso   ? 		C 		0.50912
C 1.0  		0.47553070348580573 		0.8371773481205221  0.7420281820804507 		Uiso   ? 		C 		0.50912
C 1.0  		0.28046782536229176 		0.239228579841005  0.5423438304323477 		Uiso   ? 		C 		0.50912
C 1.0  		0.642273710411607 		0.1732260280694867  0.7406139869554642 		Uiso   ? 		C 		0.50912
C 1.0  		0.45009874140312855 		0.5716949651585044  0.5308888499199566 		Uiso   ? 		C 		0.50912
C 1.0  		-0.1900217265726807 		0.4988222592992443  0.753483162592842 		Uiso   ? 		C 		0.50912
C 1.0  		0.6162816712415242 		0.9066149769359113  0.5282018791824821 		Uiso   ? 		C 		0.50912
C 1.0  		-0.02293837145383887 		0.8376680734125038  0.7469778650179038 		Uiso   ? 		C 		0.50912
C 1.0  		1.1116033723635588 		0.6116890764550005  0.5847696841819446 		Uiso   ? 		C 		0.50701
C 1.0  		0.47716319797263046 		0.5395524585337128  0.7947776602424497 		Uiso   ? 		C 		0.50701
C 1.0  		0.27732330866055266 		0.9409657473746198  0.5878809134569152 		Uiso   ? 		C 		0.50701
C 1.0  		0.6477843497073621 		0.8756992835410737  0.7920906895049752 		Uiso   ? 		C 		0.50701
C 1.0  		0.4490521975862296 		0.27848660319952895  0.5832140695444594 		Uiso   ? 		C 		0.50701
C 1.0  		-0.19026645314543006 		0.20806752380017668  0.8012829578173879 		Uiso   ? 		C 		0.50701
C 1.0  		0.612095918284851 		0.6109529885170283  0.5822241329569688 		Uiso   ? 		C 		0.50701
C 1.0  		-0.016245458653426026 		0.5442143488075376  0.7952019187799456 		Uiso   ? 		C 		0.50701
C 1.0  		0.7735207303954368 		0.9414564726666014  0.5941033720068559 		Uiso   ? 		C 		0.50701
C 1.0  		0.14897362835961853 		0.8806065364608893  0.7937877236549591 		Uiso   ? 		C 		0.50701
C 1.0  		0.9469319454540542 		0.2755422514476396  0.5822241329569688 		Uiso   ? 		C 		0.50701
C 1.0  		0.30933960896957446 		0.21027578761409366  0.7984545675674147 		Uiso   ? 		C 		0.50701
C 1.0  		0.41520389789686407 		0.8707920306212583  0.630306767206512 		Uiso   ? 		C 		0.50978
C 1.0  		0.06239892157514952 		-0.043919913632348616  0.8212231090796984 		Uiso   ? 		C 		0.50978
C 1.0  		0.5795983941582332 		0.19874374325252728  0.6099423574067055 		Uiso   ? 		C 		0.50978
C 1.0  		0.23143403406727775 		0.29075473549906766  0.8216473676171943 		Uiso   ? 		C 		0.50978
C 1.0  		0.7476784614478582 		0.5366081067818236  0.6230943720690806 		Uiso   ? 		C 		0.50978
C 1.0  		0.3944384089435784 		0.6273922857984101  0.827586987142138 		Uiso   ? 		C 		0.50978
C 1.0  		0.9141132272809043 		0.8673569535773875  0.6288925720815255 		Uiso   ? 		C 		0.50978
C 1.0  		0.5641627547588814 		-0.0412209245264501  0.8161320066297467 		Uiso   ? 		C 		0.50978
C 1.0  		1.0826941094439588 		0.20070664442045344  0.6107908744816974 		Uiso   ? 		C 		0.50978
C 1.0  		-0.26994416459411585 		0.29222691137501233  0.8256071139671568 		Uiso   ? 		C 		0.50978
C 1.0  		0.25090930788684995 		0.5370988320738052  0.6187103671816223 		Uiso   ? 		C 		0.50978
C 1.0  		-0.1034019931019255 		0.6261654725684562  0.8220716261546903 		Uiso   ? 		C 		0.50978
C 1.0  		0.6173389115163079 		0.3307488467955639  0.665378806306179 		Uiso   ? 		C 		0.50521
C 1.0  		0.56487412864457 		0.25174207478653454  0.8644974799042874 		Uiso   ? 		C 		0.50521
C 1.0  		0.7823848541793438 		0.6629698694670724  0.664106030693691 		Uiso   ? 		C 		0.50521
C 1.0  		0.7298237844172686 		0.5888703503778585  0.8718512945542174 		Uiso   ? 		C 		0.50521
C 1.0  		0.9517551366026824 		0.9978898812444794  0.6663687428936694 		Uiso   ? 		C 		0.50521
C 1.0  		-0.10513827388687708 		-0.08023358523898323  0.8742554262666946 		Uiso   ? 		C 		0.50521
C 1.0  		1.1153084697975812 		0.3275591323976838  0.6583078306812461 		Uiso   ? 		C 		0.50521
C 1.0  		0.06101826308297491 		0.24953381097261754  0.8697300018667377 		Uiso   ? 		C 		0.50521
C 1.0  		0.2819376289978691 		0.6624791441750909  0.6718841038811172 		Uiso   ? 		C 		0.50521
C 1.0  		0.22614753968257084 		0.5861713612719599  0.8707199384542281 		Uiso   ? 		C 		0.50521
C 1.0  		0.45141299593439277 		0.9942094415546177  0.6624089965437071 		Uiso   ? 		C 		0.50521
C 1.0  		0.3938784611563075 		-0.080478947884974  0.8784980116416542 		Uiso   ? 		C 		0.50521
C 1.0  		0.7020208144895331 		0.5005397978211797  0.9132872117163238 		Uiso   ? 		C 		0.48339
C 1.0  		0.616811882083391 		0.5893610756698401  0.7010165234558403 		Uiso   ? 		C 		0.48339
C 1.0  		0.8701402276014789 		0.8342329963686329  0.9209238653912512 		Uiso   ? 		C 		0.48339
C 1.0  		0.7836299612928159 		0.917901658651487  0.7096431137182584 		Uiso   ? 		C 		0.48339
C 1.0  		1.0342828878681978 		0.16635587398174503  0.9132872117163238 		Uiso   ? 		C 		0.48339
C 1.0  		0.9480179810772964 		0.2505152615565806  0.7037034941933148 		Uiso   ? 		C 		0.48339
C 1.0  		0.20207310596642963 		0.5027480616350967  0.9139943092788171 		Uiso   ? 		C 		0.48339
C 1.0  		1.1174211328460673 		0.5859259986259692  0.6996023283308538 		Uiso   ? 		C 		0.48339
C 1.0  		0.3729724865643551 		0.8398763372264207  0.9250250312537124 		Uiso   ? 		C 		0.48339
C 1.0  		0.2846789649404957 		0.9191284718814409  0.7082289185932719 		Uiso   ? 		C 		0.48339
C 1.0  		0.5350295909300994 		0.1678280498576897  0.910741660491348 		Uiso   ? 		C 		0.48339
C 1.0  		0.45011416148688754 		0.2546864265384238  0.7052591088308001 		Uiso   ? 		C 		0.48339
C 1.0  		0.7854704496440741 		0.29345372460496616  0.5519603572822563 		Uiso   ? 		C 		0.48733
C 1.0  		0.1422941064650507 		0.22254391991363237  0.7465536064804077 		Uiso   ? 		C 		0.48733
C 1.0  		0.9571781239630375 		0.6283737363823731  0.539798279207372 		Uiso   ? 		C 		0.48733
C 1.0  		0.3118111403698544 		0.5564824811070762  0.7623925918802573 		Uiso   ? 		C 		0.48733
C 1.0  		1.1191177268317312 		0.9586318578859555  0.5345657572449216 		Uiso   ? 		C 		0.48733
C 1.0  		0.48343780189821717 		0.8933653940524096  0.751786128442858 		Uiso   ? 		C 		0.48733
C 1.0  		0.2845653747725081 		0.29247227402100306  0.552526035332251 		Uiso   ? 		C 		0.48733
C 1.0  		0.6454555604416408 		0.22548827166552166  0.753483162592842 		Uiso   ? 		C 		0.48733
C 1.0  		0.45755678774829667 		0.6291098243203456  0.537676986519892 		Uiso   ? 		C 		0.48733
C 1.0  		-0.18521217033176351 		0.5547649425851409  0.7609783967552708 		Uiso   ? 		C 		0.48733
C 1.0  		0.6182631165512931 		0.9615762096378448  0.5344243377324229 		Uiso   ? 		C 		0.48733
C 1.0  		-0.020017155041303192 		0.8923839434684464  0.7529174845428472 		Uiso   ? 		C 		0.48733
C 1.0  		1.1188072615681175 		0.6668956718029247  0.5726076061070603 		Uiso   ? 		C 		0.48255
C 1.0  		0.4813681530419913 		0.595985867111591  0.7935048846299617 		Uiso   ? 		C 		0.48255
C 1.0  		0.2817078845568107 		0.9969084306605163  0.5844868451569474 		Uiso   ? 		C 		0.48255
C 1.0  		0.6530882443448203 		-0.06821081558543529  0.7828984211925624 		Uiso   ? 		C 		0.48255
C 1.0  		0.9494369791447788 		0.33197566002551776  0.5792543231944971 		Uiso   ? 		C 		0.48255
C 1.0  		0.3158162172436957 		0.26572774560800866  0.7894037187675007 		Uiso   ? 		C 		0.48255
C 1.0  		0.6172077751115463 		0.666650309156934  0.5760016744070281 		Uiso   ? 		C 		0.48255
C 1.0  		-0.012498353274156548 		0.6001570320934342  0.7862924894925302 		Uiso   ? 		C 		0.48255
C 1.0  		0.7789348878079103 		0.9969084306605163  0.5847696841819446 		Uiso   ? 		C 		0.48255
C 1.0  		0.15336182361689435 		-0.0642850132495829  0.7857268114425356 		Uiso   ? 		C 		0.48255
C 1.0  		0.4486545840320937 		0.33123957208754545  0.5752945768445347 		Uiso   ? 		C 		0.48255
C 1.0  		-0.18533421714563203 		0.264255569732064  0.7964746943924335 		Uiso   ? 		C 		0.48255
C 1.0  		0.4175445848604277 		0.9247718127392287  0.6222458549940887 		Uiso   ? 		C 		0.48927
C 1.0  		0.07022500719696018 		0.014231033467464915  0.8261727920171513 		Uiso   ? 		C 		0.48927
C 1.0  		0.5829205191928437 		0.2546864265384238  0.612205069606684 		Uiso   ? 		C 		0.48927
C 1.0  		0.2335622308585118 		0.344734517617038  0.8315467334921003 		Uiso   ? 		C 		0.48927
C 1.0  		0.751302887068247 		0.5923054274217294  0.6185689476691235 		Uiso   ? 		C 		0.48927
C 1.0  		0.40183071659788205 		0.6838256943762882  0.8364964164295533 		Uiso   ? 		C 		0.48927
C 1.0  		0.9186533522814753 		0.9240357248012563  0.6249328257315631 		Uiso   ? 		C 		0.48927
C 1.0  		0.5711958207593906 		0.01619393463539111  0.8219302066421917 		Uiso   ? 		C 		0.48927
C 1.0  		1.0868661951678875 		0.25664932770635  0.6107908744816974 		Uiso   ? 		C 		0.48927
C 1.0  		-0.26573041190190727 		0.35037785847482583  0.8264556310421487 		Uiso   ? 		C 		0.48927
C 1.0  		0.25280094278317017 		0.5923054274217294  0.623377211094078 		Uiso   ? 		C 		0.48927
C 1.0  		-0.09710500565470165 		0.6821081558543527  0.8325366700795909 		Uiso   ? 		C 		0.48927
C 1.0  		0.6199337556204813 		0.3869368927274512  0.6656616453311762 		Uiso   ? 		C 		0.48660
C 1.0  		0.5677712733345215 		0.30768475807243106  0.8579921823293492 		Uiso   ? 		C 		0.48660
C 1.0  		0.7859764104543003 		0.7181764648149966  0.672732620956109 		Uiso   ? 		C 		0.48660
C 1.0  		0.7360550331736282 		0.643831583079792  0.8656288360042766 		Uiso   ? 		C 		0.48660
C 1.0  		0.960790424567606 		1.0550593777603299  0.6724497819311117 		Uiso   ? 		C 		0.48660
C 1.0  		-0.10109766554467725 		-0.02625380312101286  0.8622347677043088 		Uiso   ? 		C 		0.48660
C 1.0  		1.119079646899435 		0.3822750024536265  0.6667930014311655 		Uiso   ? 		C 		0.48660
C 1.0  		0.06497785863457399 		0.30547649425851414  0.8643560603917887 		Uiso   ? 		C 		0.48660
C 1.0  		0.2856518650317065 		0.7179311021690059  0.6781065624310579 		Uiso   ? 		C 		0.48660
C 1.0  		0.2340963050632624 		0.6445676710177642  0.8650631579542819 		Uiso   ? 		C 		0.48660
C 1.0  		0.4565665197293682 		1.0521150260084406  0.6656616453311762 		Uiso   ? 		C 		0.48660
C 1.0  		0.3980329516345403 		-0.02797134164294828  0.8642146408792899 		Uiso   ? 		C 		0.48660
C 1.0  		0.6432771263772568 		0.39282559623122976  0.9055091385288976 		Uiso   ? 		C 		0.56828
C 1.0  		0.5545040044866812 		0.4791932476199824  0.7075218210307785 		Uiso   ? 		C 		0.56828
C 1.0  		0.8071555336654599 		0.7282363333006183  0.9113073385413426 		Uiso   ? 		C 		0.56828
C 1.0  		0.7202026917664419 		0.8084699185396016  0.7167140893431911 		Uiso   ? 		C 		0.56828
C 1.0  		0.9755267827720557 		1.0577583668662283  0.9074890117038789 		Uiso   ? 		C 		0.56828
C 1.0  		0.8937125148613559 		0.14402787319658455  0.7179868649556791 		Uiso   ? 		C 		0.56828
C 1.0  		0.14004345723291378 		0.3935616841692021  0.9072061726788816 		Uiso   ? 		C 		0.56828
C 1.0  		1.0536017523204664 		0.4769849838060654  0.7066733039557866 		Uiso   ? 		C 		0.56828
C 1.0  		0.3118256678655895 		0.7311806850525077  0.9137114702538198 		Uiso   ? 		C 		0.56828
C 1.0  		0.22375343403690756 		0.8121503582294632  0.7107744698182477 		Uiso   ? 		C 		0.56828
C 1.0  		0.4748758650410993 		1.0589851800961823  0.9074890117038789 		Uiso   ? 		C 		0.56828
C 1.0  		0.392744022444885 		0.1484444008244185  0.719259640568167 		Uiso   ? 		C 		0.56828
C 1.0  		0.7251823892574746 		0.18647561095298854  0.5356971133449109 		Uiso   ? 		C 		0.57175
C 1.0  		0.08321524842156391 		0.11458435567769164  0.7359471430430085 		Uiso   ? 		C 		0.57175
C 1.0  		0.8942656451947713 		0.518696633624497  0.53894976213238 		Uiso   ? 		C 		0.57175
C 1.0  		0.2523489689499887 		0.4507311806850525  0.7492405772178823 		Uiso   ? 		C 		0.57175
C 1.0  		1.0578658236197804 		0.8531259201099225  0.5178782547700802 		Uiso   ? 		C 		0.57175
C 1.0  		0.420411440993918 		0.785160467170478  0.7482506406303917 		Uiso   ? 		C 		0.57175
C 1.0  		0.2254800402521328 		0.18917460005888706  0.5341414987074257 		Uiso   ? 		C 		0.57175
C 1.0  		0.586541049125315 		0.11998233388948867  0.7366542406055018 		Uiso   ? 		C 		0.57175
C 1.0  		0.39448875987571735 		0.518696633624497  0.5356971133449109 		Uiso   ? 		C 		0.57175
C 1.0  		0.7525003700225738 		0.44680537834920014  0.7502305138053728 		Uiso   ? 		C 		0.57175
C 1.0  		0.561530448026279 		0.8553341839238395  0.5211309035575493 		Uiso   ? 		C 		0.57175
C 1.0  		-0.07854835298125012 		0.7846697418784965  0.7492405772178823 		Uiso   ? 		C 		0.57175
C 1.0  		1.0550864890788132 		0.5594268328589656  0.5817998744194729 		Uiso   ? 		C 		0.57065
C 1.0  		0.4233276741375679 		0.4892531161056041  0.8034042505048676 		Uiso   ? 		C 		0.57065
C 1.0  		0.22074948430779034 		0.8894395917165572  0.5875980744319179 		Uiso   ? 		C 		0.57065
C 1.0  		0.5911776560091676 		0.8236824025910296  0.7923735285299724 		Uiso   ? 		C 		0.57065
C 1.0  		0.39222421609285774 		0.22475218372754935  0.5888708500444056 		Uiso   ? 		C 		0.57065
C 1.0  		0.7538328850695798 		0.15580528020414175  0.7998687626924013 		Uiso   ? 		C 		0.57065
C 1.0  		0.555701714758986 		0.5589361075669841  0.5806685183194836 		Uiso   ? 		C 		0.57065
C 1.0  		-0.07286094997446838 		0.490479929335558  0.7998687626924013 		Uiso   ? 		C 		0.57065
C 1.0  		0.7174288274553501 		0.8891942290705664  0.5911335622443842 		Uiso   ? 		C 		0.57065
C 1.0  		0.09305254862358125 		0.8261360290509373  0.7899693968174953 		Uiso   ? 		C 		0.57065
C 1.0  		0.8921149835479447 		0.2232800078516047  0.5883051719944111 		Uiso   ? 		C 		0.57065
C 1.0  		0.2518829545820619 		0.1582589066640495  0.8004344407423959 		Uiso   ? 		C 		0.57065
C 1.0  		0.35889950478444793 		0.8185297870252233  0.6349736111189678 		Uiso   ? 		C 		0.56576
C 1.0  		0.006013515672132486 		-0.09421925606045736  0.8178290407797307 		Uiso   ? 		C 		0.56576
C 1.0  		0.523294001045817 		0.1464814996564923  0.6051340939817512 		Uiso   ? 		C 		0.56576
C 1.0  		0.17531805940460674 		0.23971930513298656  0.8142935529672642 		Uiso   ? 		C 		0.56576
C 1.0  		0.6917902510572532 		0.48262832466385325  0.6230943720690806 		Uiso   ? 		C 		0.56576
C 1.0  		0.33940895686513933 		0.5751300422023751  0.8277284066546365 		Uiso   ? 		C 		0.56576
C 1.0  		0.8583564942720279 		0.8153400726273433  0.6295996696440188 		Uiso   ? 		C 		0.56576
C 1.0  		0.5077685512330167 		-0.09323780547649427  0.8179704602922293 		Uiso   ? 		C 		0.56576
C 1.0  		1.0266920169173208 		0.14819903817842772  0.6082453232567216 		Uiso   ? 		C 		0.56576
C 1.0  		0.6753731735868547 		0.24070075571694965  0.8188189773672212 		Uiso   ? 		C 		0.56576
C 1.0  		1.1954905675145353 		0.48410050053979786  0.6185689476691235 		Uiso   ? 		C 		0.56576
C 1.0  		-0.16017303352728096 		0.5716949651585044  0.8256071139671568 		Uiso   ? 		C 		0.56576
C 1.0  		0.5614266294031187 		0.2779958779075474  0.6588735087312407 		Uiso   ? 		C 		0.56747
C 1.0  		0.5099016176341474 		0.19874374325252728  0.8684572262542497 		Uiso   ? 		C 		0.56747
C 1.0  		0.7261702714803762 		0.6104622632250467  0.6648131282561842 		Uiso   ? 		C 		0.56747
C 1.0  		0.6753660641649537 		0.5356266561978604  0.8680329677167536 		Uiso   ? 		C 		0.56747
C 1.0  		0.8967585538696756 		0.946118362940426  0.6742882355935943 		Uiso   ? 		C 		0.56747
C 1.0  		-0.16169164587807272 		0.867847678869369  0.8813264018916275 		Uiso   ? 		C 		0.56747
C 1.0  		1.0596415472021536 		0.2752968888016489  0.6546309233562809 		Uiso   ? 		C 		0.56747
C 1.0  		0.004648131279694309 		0.1962901167926195  0.872841231141708 		Uiso   ? 		C 		0.56747
C 1.0  		0.22590266712579885 		0.6094808126410836  0.6699042307061359 		Uiso   ? 		C 		0.56747
C 1.0  		0.1708157870183536 		0.5341544803219158  0.8684572262542497 		Uiso   ? 		C 		0.56747
C 1.0  		0.39590162244327815 		0.9426832858965553  0.6697628111936372 		Uiso   ? 		C 		0.56747
C 1.0  		0.3369241805430371 		0.8663755029934244  0.8806193043291342 		Uiso   ? 		C 		0.56747
C 1.0  		0.645863172858582 		0.4472961036411817  0.9111659190288439 		Uiso   ? 		C 		0.51102
C 1.0  		0.558864508660355 		0.5363627441358327  0.7010165234558403 		Uiso   ? 		C 		0.51102
C 1.0  		0.8134765928352679 		0.782952203356561  0.9226208995412352 		Uiso   ? 		C 		0.51102
C 1.0  		0.7269005878357405 		0.865639415055452  0.7083703381057705 		Uiso   ? 		C 		0.51102
C 1.0  		0.9789058488746826 		1.1129649622141524  0.9139943092788171 		Uiso   ? 		C 		0.51102
C 1.0  		0.8948439994818067 		0.19898910589851804  0.7162898308056953 		Uiso   ? 		C 		0.51102
C 1.0  		0.1447303337149501 		0.4492590048091079  0.9113073385413426 		Uiso   ? 		C 		0.51102
C 1.0  		1.0597848576316573 		0.5343998429679065  0.6996023283308538 		Uiso   ? 		C 		0.51102
C 1.0  		0.31568665538089197 		0.7856511924624595  0.9241765141787204 		Uiso   ? 		C 		0.51102
C 1.0  		0.2274435983481606 		0.8688291294533321  0.7078046600557758 		Uiso   ? 		C 		0.51102
C 1.0  		0.4797752316954652 		1.114682500736088  0.9156913434288009 		Uiso   ? 		C 		0.51102
C 1.0  		0.3957550492708693 		0.20291490823437042  0.7110573088432449 		Uiso   ? 		C 		0.51102
C 1.0  		0.7286424681507022 		0.23971930513298656  0.5491319670322833 		Uiso   ? 		C 		0.51155
C 1.0  		0.08549899431711099 		0.16930022573363432  0.7440080552554319 		Uiso   ? 		C 		0.51155
C 1.0  		0.9006612406782918 		0.5761114927863382  0.5451722206823209 		Uiso   ? 		C 		0.51155
C 1.0  		0.25599746629296166 		0.5052016880950045  0.7585742650427936 		Uiso   ? 		C 		0.51155
C 1.0  		1.061996242375429 		0.9068603395819022  0.5296160743074687 		Uiso   ? 		C 		0.51155
C 1.0  		0.4275014480624435 		0.8418392383943469  0.7553216162553245 		Uiso   ? 		C 		0.51155
C 1.0  		0.2283924590418206 		0.24217293159289432  0.5474349328822994 		Uiso   ? 		C 		0.51155
C 1.0  		0.5890196899474958 		0.1712631269015605  0.751361869905362 		Uiso   ? 		C 		0.51155
C 1.0  		0.40161163628967506 		0.5758661301403475  0.543899445069833 		Uiso   ? 		C 		0.51155
C 1.0  		0.7579145274350474 		0.5022573363431152  0.7591399430927882 		Uiso   ? 		C 		0.51155
C 1.0  		0.5642063049210531 		0.9095593286878007  0.5262220060075009 		Uiso   ? 		C 		0.51155
C 1.0  		-0.0749239273608614 		0.8403670625184022  0.7558872943053191 		Uiso   ? 		C 		0.51155
C 1.0  		1.0622575089379394 		0.6141427029149084  0.5699206353695858 		Uiso   ? 		C 		0.50873
C 1.0  		0.42521930903388805 		0.5444597114535283  0.7993030846424066 		Uiso   ? 		C 		0.50873
C 1.0  		0.22477481855025383 		0.9463637255864169  0.5857596207694353 		Uiso   ? 		C 		0.50873
C 1.0  		0.5966575521125056 		0.8801158111689078  0.7862924894925302 		Uiso   ? 		C 		0.50873
C 1.0  		0.3961926092673047 		0.28241240553538133  0.5883051719944111 		Uiso   ? 		C 		0.50873
C 1.0  		0.7587651210693779 		0.21199332613602906  0.7942119821924549 		Uiso   ? 		C 		0.50873
C 1.0  		0.5617862120338803 		0.6148787908528806  0.5713348304945723 		Uiso   ? 		C 		0.50873
C 1.0  		-0.07023323652486302 		0.5471587005594268  0.7935048846299617 		Uiso   ? 		C 		0.50873
C 1.0  		0.7227531744543749 		0.9448915497104722  0.5827898110069636 		Uiso   ? 		C 		0.50873
C 1.0  		0.09676678465741867 		0.8815879870448523  0.7851611333925409 		Uiso   ? 		C 		0.50873
C 1.0  		0.896262997549289 		0.28044950436745514  0.5898607866318963 		Uiso   ? 		C 		0.50873
C 1.0  		0.25796745185695624 		0.21420158994994604  0.7922321090174739 		Uiso   ? 		C 		0.50873
C 1.0  		0.3614198125749088 		0.8720188438512121  0.6264884403690484 		Uiso   ? 		C 		0.51236
C 1.0  		0.012711411741431124 		-0.03704975954460693  0.8241929188421703 		Uiso   ? 		C 		0.51236
C 1.0  		0.5277114462875072 		0.20291490823437042  0.6054169330067485 		Uiso   ? 		C 		0.51236
C 1.0  		0.17851750468033636 		0.29541662577289235  0.821364528592197 		Uiso   ? 		C 		0.51236
C 1.0  		0.694319356470562 		0.5378349200117775  0.6178618501066303 		Uiso   ? 		C 		0.51236
C 1.0  		0.34389214079769403 		0.6325449013642164  0.832112411542095 		Uiso   ? 		C 		0.51236
C 1.0  		0.8629535603406155 		0.8712827559132399  0.6269126989065443 		Uiso   ? 		C 		0.51236
C 1.0  		0.5128563363371277 		-0.03631367160663461  0.8239100798171728 		Uiso   ? 		C 		0.51236
C 1.0  		1.0314775014356539 		0.20536853469427815  1.6062428229597407 		Uiso   ? 		C 		0.51236
C 1.0  		0.6771749980697261 		0.2961527137108647  0.822213045667189 		Uiso   ? 		C 		0.51236
C 1.0  		1.1985432613087998 		0.5407792717636668  0.6187103671816223 		Uiso   ? 		C 		0.51236
C 1.0  		-0.15498664038687332 		0.6300912749043086  0.830415377392111 		Uiso   ? 		C 		0.51236
C 1.0  		0.5632525256085745 		0.33222102267150855  0.6669344209436642 		Uiso   ? 		C 		0.51407
C 1.0  		0.511972873357365 		0.25345961330846994  0.8589821189168396 		Uiso   ? 		C 		0.51407
C 1.0  		0.731192317893623 		0.6664049465109433  0.672308362418613 		Uiso   ? 		C 		0.51407
C 1.0  		0.6790145615079267 		0.5900971636078124  1.8612222039948183 		Uiso   ? 		C 		0.51407
C 1.0  		0.9056799596985661 		1.004760035332221  0.6823491478060177 		Uiso   ? 		C 		0.51407
C 1.0  		-0.15780296727916826 		-0.07974285994700167  0.8664773530792684 		Uiso   ? 		C 		0.51407
C 1.0  		1.063086351995645 		0.3314849347335362  0.6629746745937017 		Uiso   ? 		C 		0.51407
C 1.0  		0.008149877141202092 		0.25174207478653454  0.8652045774667806 		Uiso   ? 		C 		0.51407
C 1.0  		0.22897943264264753 		0.6649327706349986  0.677258045356066 		Uiso   ? 		C 		0.51407
C 1.0  		0.17706463102040892 		0.5925507900677202  0.8608205725793222 		Uiso   ? 		C 		0.51407
C 1.0  		0.4036619693742245 		0.9998527824124056  0.6752781721810849 		Uiso   ? 		C 		0.51407
C 1.0  		0.3420067873853179 		-0.07925213465502012  0.868315806741751 		Uiso   ? 		C 		0.51407
C 1.0  		0.6473298274102433 		0.5025026989891059  0.9163984409912943 		Uiso   ? 		C 		0.52794
C 1.0  		0.5650957574167145 		0.5913239768377663  0.6922485136809235 		Uiso   ? 		C 		0.52794
C 1.0  		0.8182204103853208 		0.8379134360584946  0.9308232312661572 		Uiso   ? 		C 		0.52794
C 1.0  		0.732706856247441 		0.9206006477573855  0.7001680063808483 		Uiso   ? 		C 		0.52794
C 1.0  		0.4838699239898107 		0.17175385219354206  0.9202167678287579 		Uiso   ? 		C 		0.52794
C 1.0  		0.39678792585502354 		0.25640396506035923  0.7005922649183444 		Uiso   ? 		C 		0.52794
C 1.0  		0.14872279861198134 		0.505692413386986  0.9149842458663077 		Uiso   ? 		C 		0.52794
C 1.0  		1.0677817664575175 		0.5903425262538032  0.688854445380956 		Uiso   ? 		C 		0.52794
C 1.0  		0.3208313815530196 		0.8418392383943469  0.9337930410286289 		Uiso   ? 		C 		0.52794
C 1.0  		0.23471322624358343 		0.9250171753852194  0.7008751039433417 		Uiso   ? 		C 		0.52794
C 1.0  		0.9826565736149699 		0.16807341250368046  0.9223380605162378 		Uiso   ? 		C 		0.52794
C 1.0  		0.8949699743086263 		0.25321425066247916  0.7082289185932719 		Uiso   ? 		C 		0.52794
C 1.0  		0.7325779919797171 		0.296888801648837  0.5540816499697363 		Uiso   ? 		C 		0.53108
C 1.0  		0.08876417828370498 		0.22597899695750323  0.7465536064804077 		Uiso   ? 		C 		0.53108
C 1.0  		0.9076373656107843 		0.6342624398861518  0.5499804841072752 		Uiso   ? 		C 		0.53108
C 1.0  		0.2601783496397381 		0.5628619099028365  0.7602712991927775 		Uiso   ? 		C 		0.53108
C 1.0  		1.0652854980646074 		0.9623122975758172  0.5345657572449216 		Uiso   ? 		C 		0.53108
C 1.0  		0.43404379502742907 		0.898272646972225  0.7626754309052546 		Uiso   ? 		C 		0.53108
C 1.0  		0.23294785814212815 		0.2959073510648739  0.557051459732208 		Uiso   ? 		C 		0.53108
C 1.0  		0.5923987560501227 		0.22646972224948478  0.758432845530295 		Uiso   ? 		C 		0.53108
C 1.0  		0.4067410883620662 		0.6349985278241241  0.5461621572698114 		Uiso   ? 		C 		0.53108
C 1.0  		-0.23770371937404583 		0.5594268328589656  0.7628168504177533 		Uiso   ? 		C 		0.53108
C 1.0  		0.5659752600584924 		0.9645205613897341  0.5314545279699512 		Uiso   ? 		C 		0.53108
C 1.0  		-0.07214946242979081 		0.896064383158308  0.7587156845552923 		Uiso   ? 		C 		0.53108
C 1.0  		0.8980319526867283 		0.33541073706938856  0.5847696841819446 		Uiso   ? 		C 		0.52872
C 1.0  		0.2656861318196224 		0.2691628226518795  0.7800700309425893 		Uiso   ? 		C 		0.52872
C 1.0  		1.0694044570744814 		0.6700853862008048  0.5598798499821812 		Uiso   ? 		C 		0.52872
C 1.0  		0.4286312444819472 		0.6001570320934342  0.7925149480424711 		Uiso   ? 		C 		0.52872
C 1.0  		0.22985380603151712 		1.001570320934341  0.5776987085570119 		Uiso   ? 		C 		0.52872
C 1.0  		0.6010457473697813 		-0.06477573854156445  0.7766759626426216 		Uiso   ? 		C 		0.52872
C 1.0  		0.39771620488698234 		0.33688291294533323  0.5809513573444809 		Uiso   ? 		C 		0.52872
C 1.0  		0.763305246069949 		0.26867209735989794  0.7882723626675114 		Uiso   ? 		C 		0.52872
C 1.0  		0.5666855786882462 		0.6705761114927864  0.5651123719446315 		Uiso   ? 		C 		0.52872
C 1.0  		-0.06581579128317278 		0.603592109137305  0.7838883577800531 		Uiso   ? 		C 		0.52872
C 1.0  		0.7271706196960653 		1.0013249582883503  0.5792543231944971 		Uiso   ? 		C 		0.52872
C 1.0  		0.10067305850201885 		-0.06256747472764747  0.7769588016676189 		Uiso   ? 		C 		0.52872
C 1.0  		0.36583725781659915 		0.9284522524290902  0.6222458549940887 		Uiso   ? 		C 		0.53044
C 1.0  		0.01858341884399594 		0.018892923741289626  0.8328195091045882 		Uiso   ? 		C 		0.53044
C 1.0  		0.5319492707023002 		0.25983904210423003  0.6083867427692203 		Uiso   ? 		C 		0.53044
C 1.0  		0.18018785178147914 		0.34890568259888116  0.8314053139796016 		Uiso   ? 		C 		0.53044
C 1.0  		0.6975516710917238 		0.5940229659436648  0.6172961720566357 		Uiso   ? 		C 		0.53044
C 1.0  		0.3509733502433716 		0.6875061340661498  0.8441330701044808 		Uiso   ? 		C 		0.53044
C 1.0  		0.867125646064544 		0.9272254391991364  0.6304481867190108 		Uiso   ? 		C 		0.53044
C 1.0  		0.5207963040949714 		0.020365099617234275  0.8315467334921003 		Uiso   ? 		C 		0.53044
C 1.0  		1.0345542669525025 		0.2608204926881932  1.6075155985722287 		Uiso   ? 		C 		0.53044
C 1.0  		0.6804313844134723 		0.35111394641279814  0.8311224749546043 		Uiso   ? 		C 		0.53044
C 1.0  		1.2008927458952112 		0.5964765924035725  0.62210443548159 		Uiso   ? 		C 		0.53044
C 1.0  		-0.14762720207800178 		0.6860339581902052  0.840739001804513 		Uiso   ? 		C 		0.53044
C 1.0  		0.5677357095411292 		0.38963588183334974  0.6700456502186346 		Uiso   ? 		C 		0.52864
C 1.0  		0.5153278677374076 		0.30989302188634804  0.8527596603668989 		Uiso   ? 		C 		0.52864
C 1.0  		0.7339667828246934 		0.722102267150849  0.67683378681857 		Uiso   ? 		C 		0.52864
C 1.0  		0.6844375165432481 		0.6472666601236629  1.8555654234948722 		Uiso   ? 		C 		0.52864
C 1.0  		0.9123778557678648 		1.0619295318480717  0.682631986831015 		Uiso   ? 		C 		0.52864
C 1.0  		-0.15439103183110914 		-0.02404553930709589  0.8598306359918316 		Uiso   ? 		C 		0.52864
C 1.0  		1.0676834180642327 		0.38742761801943276  0.6679243575311548 		Uiso   ? 		C 		0.52864
C 1.0  		0.011962721211335986 		0.30866620865639416  0.8664773530792684 		Uiso   ? 		C 		0.52864
C 1.0  		0.23318438771200836 		0.7213661792128767  0.6796621770685433 		Uiso   ? 		C 		0.52864
C 1.0  		0.1850045987782525 		0.649229561291589  0.8521939823169041 		Uiso   ? 		C 		0.52864
C 1.0  		0.40780998337556873 		1.057022278928256  0.6775408843810634 		Uiso   ? 		C 		0.52864
C 1.0  		0.3452391020064797 		-0.023064088723132793  0.8619519286793115 		Uiso   ? 		C 		0.52864
N 1.0  		0.2941921972962219 		0.24585337128275594  0.9188025727037714 		Uiso   ? 		N 		-0.42234
N 1.0  		0.20776294377815974 		0.3275591323976838  0.7022892990683283 		Uiso   ? 		N 		-0.42234
N 1.0  		0.46115934913307133 		0.5797919324761999  0.9179540556287794 		Uiso   ? 		N 		-0.42234
N 1.0  		0.3738648608259547 		0.6644420453430171  0.7157241527557007 		Uiso   ? 		N 		-0.42234
N 1.0  		0.6282251090062174 		0.9152026695455885  0.9098931434163561 		Uiso   ? 		N 		-0.42234
N 1.0  		0.5386085029032122 		0.9969084306605163  0.7008751039433417 		Uiso   ? 		N 		-0.42234
N 1.0  		0.7945912790325281 		0.24879772303464523  0.9189439922162701 		Uiso   ? 		N 		-0.42234
N 1.0  		0.7067315353761756 		0.3297673962116008  0.7099259527432557 		Uiso   ? 		N 		-0.42234
N 1.0  		0.963405103729479 		0.5817548336441261  0.9141357287913158 		Uiso   ? 		N 		-0.42234
N 1.0  		0.8759309945954648 		0.6668956718029247  0.7144513771432127 		Uiso   ? 		N 		-0.42234
N 1.0  		0.12565298210144737 		0.9147119442536069  0.9100345629288547 		Uiso   ? 		N 		-0.42234
N 1.0  		1.0426768586371369 		0.9991166944744333  0.7010165234558403 		Uiso   ? 		N 		-0.42234
N 1.0  		0.3796733043995919 		1.039846893708902  0.5458793182448142 		Uiso   ? 		N 		-0.42002
N 1.0  		0.7371343973270374 		-0.02846206693492983  0.7500890942928742 		Uiso   ? 		N 		-0.42002
N 1.0  		0.542172984355691 		0.3712336833840416  0.5249492303950131 		Uiso   ? 		N 		-0.42002
N 1.0  		-0.0912834308182312 		0.3074393954264403  0.7595642016302843 		Uiso   ? 		N 		-0.42002
N 1.0  		0.7121149986051538 		0.7051722445774856  0.5396568596948732 		Uiso   ? 		N 		-0.42002
N 1.0  		0.07303523091436731 		0.6399057807439397  0.7437252162304346 		Uiso   ? 		N 		-0.42002
N 1.0  		0.8822037643360818 		1.0381293551869664  0.5489905475197846 		Uiso   ? 		N 		-0.42002
N 1.0  		0.23666310042297847 		-0.027725978996957508  0.7529174845428472 		Uiso   ? 		N 		-0.42002
N 1.0  		1.0421952291925067 		0.3717244086760232  0.5215551620950453 		Uiso   ? 		N 		-0.42002
N 1.0  		0.4062370753957988 		0.30547649425851414  0.7557458747928205 		Uiso   ? 		N 		-0.42002
N 1.0  		0.20994378032245847 		0.7059083325154578  0.5424852499448464 		Uiso   ? 		N 		-0.42002
N 1.0  		0.569361808885021 		0.6359799784080872  0.7474021235553997 		Uiso   ? 		N 		-0.42002
N 1.0  		0.7049719784815629 		0.4129453332024733  0.5892951085819017 		Uiso   ? 		N 		-0.42066
N 1.0  		0.07405432660678782 		0.34105407792717635  0.7831812602175598 		Uiso   ? 		N 		-0.42066
N 1.0  		0.8764912343507811 		0.7466385317499264  0.5955175671318427 		Uiso   ? 		N 		-0.42066
N 1.0  		0.24156913854717715 		0.6752380017666111  0.7966161139049321 		Uiso   ? 		N 		-0.42066
N 1.0  		1.040450654429585 		1.0800863676513888  0.5743046402570441 		Uiso   ? 		N 		-0.42066
N 1.0  		0.408949615989967 		0.011286681715575621  0.7990202456174094 		Uiso   ? 		N 		-0.42066
N 1.0  		1.2051321771769958 		0.4107370693885563  0.5819412939319716 		Uiso   ? 		N 		-0.42066
N 1.0  		0.573055787550236 		0.3437530670330749  0.7898279773049967 		Uiso   ? 		N 		-0.42066
N 1.0  		0.3724052833711607 		0.7409951908921386  0.5933962744443627 		Uiso   ? 		N 		-0.42066
N 1.0  		0.7407173509720905 		0.6769555402885465  0.7974646309799241 		Uiso   ? 		N 		-0.42066
N 1.0  		0.5428556119018428 		1.0793502797134165  0.5702034743945831 		Uiso   ? 		N 		-0.42066
N 1.0  		-0.09086013867451917 		0.010795956423594072  0.8053841236798489 		Uiso   ? 		N 		-0.42066
N 1.0  		1.0106168945069545 		0.6664049465109433  0.602729962269274 		Uiso   ? 		N 		-0.42144
N 1.0  		0.6558477438280879 		0.7549808617136128  0.8195260749297145 		Uiso   ? 		N 		-0.42144
N 1.0  		1.176309105309827 		1.0003435077043872  0.6165890744941425 		Uiso   ? 		N 		-0.42144
N 1.0  		-0.17822268681845968 		0.088085189910688  0.8342337042295748 		Uiso   ? 		N 		-0.42144
N 1.0  		0.34162759701483436 		0.33860045146726864  0.6315795428190001 		Uiso   ? 		N 		-0.42144
N 1.0  		-0.014254469116807889 		0.4232505643340858  0.8298496993421165 		Uiso   ? 		N 		-0.42144
N 1.0  		0.5140778263639716 		0.6703307488467957  0.6000429915317996 		Uiso   ? 		N 		-0.42144
N 1.0  		0.15976652537519614 		0.7593973893414467  0.8229201432296822 		Uiso   ? 		N 		-0.42144
N 1.0  		0.6793033898539046 		1.0020610462263224  0.6158819769316491 		Uiso   ? 		N 		-0.42144
N 1.0  		0.32636045967357274 		0.0900480910786142  0.8287183432421272 		Uiso   ? 		N 		-0.42144
N 1.0  		0.8423683251592394 		0.337128275591324  0.6304481867190108 		Uiso   ? 		N 		-0.42144
N 1.0  		0.48947871668590637 		0.42521346550201206  0.8241929188421703 		Uiso   ? 		N 		-0.42144
N 1.0  		0.20924053878957194 		1.1316125233094514  0.6677829380186562 		Uiso   ? 		N 		-0.42274
N 1.0  		0.16163377989699862 		0.05128079301207184  0.8565779872043626 		Uiso   ? 		N 		-0.42274
N 1.0  		0.38114904854214626 		0.4686426538423791  0.6803692746310365 		Uiso   ? 		N 		-0.42274
N 1.0  		0.3251770172539913 		0.38644616743546967  0.8756696213916811 		Uiso   ? 		N 		-0.42274
N 1.0  		0.5438312064410135 		0.7957110609480813  0.6650959672811816 		Uiso   ? 		N 		-0.42274
N 1.0  		0.48910356798736293 		0.7194032780449505  0.8691643238167429 		Uiso   ? 		N 		-0.42274
N 1.0  		0.7112562079679542 		1.1301403474335068  0.6706113282686292 		Uiso   ? 		N 		-0.42274
N 1.0  		0.6581751691859411 		0.05373441947197959  0.8584164408668451 		Uiso   ? 		N 		-0.42274
N 1.0  		0.8840475477552788 		0.467661203258416  0.6795207575560446 		Uiso   ? 		N 		-0.42274
N 1.0  		-0.17884967151165326 		0.38644616743546967  0.8790636896916489 		Uiso   ? 		N 		-0.42274
N 1.0  		1.0444580524493856 		0.7957110609480813  0.6595806062937339 		Uiso   ? 		N 		-0.42274
N 1.0  		-0.009659009915212013 		0.7218569045048583  0.8632247042917994 		Uiso   ? 		N 		-0.42274
N 1.0  		0.2956347801252988 		0.302286779860634  0.9241765141787204 		Uiso   ? 		N 		-0.45981
N 1.0  		0.21218038901985006 		0.3839925409755619  0.7005922649183444 		Uiso   ? 		N 		-0.45981
N 1.0  		0.4649064545123409 		0.6357346157620964  0.9210652849037498 		Uiso   ? 		N 		-0.45981
N 1.0  		0.37484079634209233 		0.7186671901069781  0.7076632405432771 		Uiso   ? 		N 		-0.45981
N 1.0  		0.6327411622842043 		0.9731082539994113  0.9134286312288223 		Uiso   ? 		N 		-0.45981
N 1.0  		0.5463031111432941 		1.0530964765924036  0.6904100600184411 		Uiso   ? 		N 		-0.45981
N 1.0  		0.799056867719387 		0.3027775051526156  0.9294090361411707 		Uiso   ? 		N 		-0.45981
N 1.0  		0.7113045297221791 		0.3869368927274512  0.7051176893183013 		Uiso   ? 		N 		-0.45981
N 1.0  		0.9658772680747714 		0.6376975169300226  0.9158327629412996 		Uiso   ? 		N 		-0.45981
N 1.0  		0.8774217208697104 		0.7208754539208951  0.7078046600557758 		Uiso   ? 		N 		-0.45981
N 1.0  		0.12973525741192726 		0.9708999901854942  0.9163984409912943 		Uiso   ? 		N 		-0.45981
N 1.0  		1.0477558461184 		1.0543232898223576  0.6926727722184196 		Uiso   ? 		N 		-0.45981
N 1.0  		0.38403380857326563 		1.0970163902247523  0.5465864158073075 		Uiso   ? 		N 		-0.45956
N 1.0  		0.7390829732913742 		0.026008440475022085  0.7564529723553137 		Uiso   ? 		N 		-0.45956
N 1.0  		0.5454951093903014 		0.42717636666993825  0.5334344011449323 		Uiso   ? 		N 		-0.45956
N 1.0  		-0.08285274402486414 		0.36509961723427226  0.7660694992052223 		Uiso   ? 		N 		-0.45956
N 1.0  		0.7125761433631839 		0.7596427519874375  0.5512532597197631 		Uiso   ? 		N 		-0.45956
N 1.0  		0.07461576760206146 		0.6936402002159192  0.7516447089303594 		Uiso   ? 		N 		-0.45956
N 1.0  		0.8839157784055047 		1.0938266758268722  0.5499804841072752 		Uiso   ? 		N 		-0.45956
N 1.0  		0.24174208790424165 		0.02748061635096673  0.7598470406552815 		Uiso   ? 		N 		-0.45956
N 1.0  		1.0460802884303935 		0.4249681028560212  0.5308888499199566 		Uiso   ? 		N 		-0.45956
N 1.0  		0.4139316836358806 		0.36166454019040145  0.7633825284677478 		Uiso   ? 		N 		-0.45956
N 1.0  		0.21352653897456714 		0.7593973893414467  0.5522431963072537 		Uiso   ? 		N 		-0.45956
N 1.0  		0.573901933885592 		0.6926587496319561  0.7506547723428688 		Uiso   ? 		N 		-0.45956
N 1.0  		0.7103861358940365 		0.4683972911963883  0.5793957427069958 		Uiso   ? 		N 		-0.45680
N 1.0  		0.07835788971244516 		0.3989596623809991  0.779787191917592 		Uiso   ? 		N 		-0.45680
N 1.0  		0.8785624900739988 		0.8013544018058691  0.5880223329694139 		Uiso   ? 		N 		-0.45680
N 1.0  		0.2460523224797319 		0.7326528609284524  0.7884137821800101 		Uiso   ? 		N 		-0.45680
N 1.0  		1.0483942415484462 		0.135930905878889  0.5663851475571193 		Uiso   ? 		N 		-0.45680
N 1.0  		0.4115685318167245 		0.06624791441750909  0.7912421724299832 		Uiso   ? 		N 		-0.45680
N 1.0  		1.2087237334519523 		0.4659436647364806  0.5728904451320576 		Uiso   ? 		N 		-0.45680
N 1.0  		0.577832474445721 		0.3992050250269899  0.7810599675300799 		Uiso   ? 		N 		-0.45680
N 1.0  		0.37560472864689026 		0.7966925115320443  0.5885880110194084 		Uiso   ? 		N 		-0.45680
N 1.0  		0.7478402273860482 		0.734125036804397  0.7894037187675007 		Uiso   ? 		N 		-0.45680
N 1.0  		0.5488627157471541 		0.13642163117087058  0.5644052743821382 		Uiso   ? 		N 		-0.45680
N 1.0  		-0.08933654305484151 		0.06526646383354599  0.7983131480549159 		Uiso   ? 		N 		-0.45680
N 1.0  		1.0129423073707817 		0.7233290803808029  0.6017400256817834 		Uiso   ? 		N 		-0.45823
N 1.0  		0.6581972284144992 		0.8106781823535185  0.8250414359171621 		Uiso   ? 		N 		-0.45823
N 1.0  		1.1782336095515793 		1.056040828344293  0.6160233964441477 		Uiso   ? 		N 		-0.45823
N 1.0  		-0.17626531323127506 		0.14427323584257534  0.83578931886706 		Uiso   ? 		N 		-0.45823
N 1.0  		0.34820281332525216 		0.3955245853371283  0.6298825086690161 		Uiso   ? 		N 		-0.45823
N 1.0  		-0.009256494426145512 		0.4804200608499362  0.8360721578920574 		Uiso   ? 		N 		-0.45823
N 1.0  		0.5164032392277986 		0.7272548827166553  0.6008915086067915 		Uiso   ? 		N 		-0.45823
N 1.0  		0.16137993140832238 		0.8136225341054079  0.8291426017796232 		Uiso   ? 		N 		-0.45823
N 1.0  		0.6813177045091057 		1.0575130042202374  0.6187103671816223 		Uiso   ? 		N 		-0.45823
N 1.0  		0.330777904915263 		0.1464814996564923  0.8343751237420735 		Uiso   ? 		N 		-0.45823
N 1.0  		0.8452654698491908 		0.3930709588772206  0.6301653476940134 		Uiso   ? 		N 		-0.45823
N 1.0  		0.4930702729608628 		0.4804200608499362  0.8311224749546043 		Uiso   ? 		N 		-0.45823
N 1.0  		0.2133921721519339 		0.18794778682893318  0.6737225575435997 		Uiso   ? 		N 		-0.46009
N 1.0  		0.16314210141693988 		0.10869565217391305  0.8533253384168934 		Uiso   ? 		N 		-0.46009
N 1.0  		0.39146807516389476 		0.5275296888801649  0.686733152693476 		Uiso   ? 		N 		-0.46009
N 1.0  		0.3286787631154991 		0.44189812542938467  0.8684572262542497 		Uiso   ? 		N 		-0.46009
N 1.0  		0.5485509522684819 		0.8518991068799686  0.668207196556152 		Uiso   ? 		N 		-0.46009
N 1.0  		0.493374261747588 		0.7768181372067917  0.8602548945293276 		Uiso   ? 		N 		-0.46009
N 1.0  		0.7147046321224632 		0.18549416036902544  0.6764095282810741 		Uiso   ? 		N 		-0.46009
N 1.0  		0.6652082351864501 		0.1111492786338208  1.8549997454448777 		Uiso   ? 		N 		-0.46009
N 1.0  		0.8908111825154419 		0.5258121503582295  0.6829148258560123 		Uiso   ? 		N 		-0.46009
N 1.0  		-0.17458777537427608 		0.44214348807537546  0.8705785189417294 		Uiso   ? 		N 		-0.46009
N 1.0  		1.0477801774839959 		0.8516537442339779  0.6660859038686722 		Uiso   ? 		N 		-0.46009
N 1.0  		-0.005307303364386118 		0.7773088624987733  0.8553052115918747 		Uiso   ? 		N 		-0.46009
N 1.0  		0.2908460005390272 		0.19113750122681325  0.9072061726788816 		Uiso   ? 		N 		-0.42721
N 1.0  		0.2027649690874974 		0.2703896358818334  0.7075218210307785 		Uiso   ? 		N 		-0.42721
N 1.0  		0.45832794313398434 		0.5248306997742663  0.9106002409788493 		Uiso   ? 		N 		-0.42721
N 1.0  		0.3716621277210084 		0.6077632741191481  0.7205324161806549 		Uiso   ? 		N 		-0.42721
N 1.0  		0.6269052059360214 		0.8590146236137011  0.9038121043789138 		Uiso   ? 		N 		-0.42721
N 1.0  		0.5368636194883571 		0.940720384728629  0.7075218210307785 		Uiso   ? 		N 		-0.42721
N 1.0  		0.7923492001052611 		0.1962901167926195  0.9077718507288761 		Uiso   ? 		N 		-0.42721
N 1.0  		0.7047172207209746 		0.2743154382176858  0.7116229868932396 		Uiso   ? 		N 		-0.42721
N 1.0  		0.960139919762885 		0.5250760624202572  1.9163758138692946 		Uiso   ? 		N 		-0.42721
N 1.0  		0.8730338499055135 		0.6109529885170283  0.7171383478806872 		Uiso   ? 		N 		-0.42721
N 1.0  		0.12379421655055928 		0.8599960741976642  0.9002766165664473 		Uiso   ? 		N 		-0.42721
N 1.0  		1.0381038642911335 		0.9419471979585828  0.7059662063932933 		Uiso   ? 		N 		-0.42721
N 1.0  		0.37649793084644656 		0.9829227598390422  0.5423438304323477 		Uiso   ? 		N 		-0.42454
N 1.0  		0.7360145674453055 		0.9144665816076161  0.7489577381928849 		Uiso   ? 		N 		-0.42454
N 1.0  		0.5395211991835013 		0.3157817253901266  0.5178782547700802 		Uiso   ? 		N 		-0.42454
N 1.0  		-0.09867573847253486 		0.2510059868485622  0.7536245821053406 		Uiso   ? 		N 		-0.42454
N 1.0  		0.7095201545009806 		0.6489841986455982  0.5334344011449323 		Uiso   ? 		N 		-0.42454
N 1.0  		0.0697459752251891 		0.5844538227500247  0.7358057235305099 		Uiso   ? 		N 		-0.42454
N 1.0  		0.8761433387837718 		0.980959858671116  0.5407882157948625 		Uiso   ? 		N 		-0.42454
N 1.0  		0.23321467626846942 		0.916920208067524  0.7465536064804077 		Uiso   ? 		N 		-0.42454
N 1.0  		1.0379333330551295 		0.3160270880361174  0.5137770889076191 		Uiso   ? 		N 		-0.42454
N 1.0  		0.4014844602228981 		0.24879772303464523  0.7519275479553568 		Uiso   ? 		N 		-0.42454
N 1.0  		1.2073934258919166 		0.6507017371675337  0.5337172401699297 		Uiso   ? 		N 		-0.42454
N 1.0  		0.5659017299917932 		0.5827362842280892  0.7372199186554964 		Uiso   ? 		N 		-0.42454
N 1.0  		0.7009707159616838 		0.35479438610265973  0.5936791134693601 		Uiso   ? 		N 		-0.42629
N 1.0  		0.06948133226078451 		0.28388458141132594  0.7841711968050504 		Uiso   ? 		N 		-0.42629
N 1.0  		0.8721307301771074 		0.689469035234076  0.5924063378568721 		Uiso   ? 		N 		-0.42629
N 1.0  		0.23767528168644253 		0.6202767690646777  0.8018486358673824 		Uiso   ? 		N 		-0.42629
N 1.0  		1.0363026404282407 		1.0229168711355383  0.5764259329445239 		Uiso   ? 		N 		-0.42629
N 1.0  		0.4077523926786518 		-0.04465600157032094  0.8056669627048462 		Uiso   ? 		N 		-0.42629
N 1.0  		1.2026359411091192 		0.35602119933261367  0.5884465915069097 		Uiso   ? 		N 		-0.42629
N 1.0  		0.569087394375789 		0.2860928452252429  0.7909593334049859 		Uiso   ? 		N 		-0.42629
N 1.0  		0.3667369688180775 		0.6833349690843067  0.5909921427318856 		Uiso   ? 		N 		-0.42629
N 1.0  		0.7366262780387627 		0.6190499558347238  0.8010001187923904 		Uiso   ? 		N 		-0.42629
N 1.0  		0.5381599377969586 		1.0219354205515754  0.5771330305070173 		Uiso   ? 		N 		-0.42629
N 1.0  		-0.09303000243403331 		-0.04539208950829326  0.8089196114923153 		Uiso   ? 		N 		-0.42629
N 1.0  		1.1727504183803026 		0.9456276376484445  0.6283268940315309 		Uiso   ? 		N 		-0.42506
N 1.0  		-0.17991062916529826 		0.031161056040828347  0.8294254408046206 		Uiso   ? 		N 		-0.42506
N 1.0  		0.3377490142538361 		0.28069486701344587  0.6327108989189892 		Uiso   ? 		N 		-0.42506
N 1.0  		-0.015272071601225734 		0.3668171557562077  0.8282940847046313 		Uiso   ? 		N 		-0.42506
N 1.0  		0.5082627603294232 		0.6136519776229267  0.6052755134942499 		Uiso   ? 		N 		-0.42506
N 1.0  		0.1558879426141978 		0.701491804887624  0.8198089139547118 		Uiso   ? 		N 		-0.42506
N 1.0  		0.6740119122003119 		0.9468544508783984  0.6243671476815685 		Uiso   ? 		N 		-0.42506
N 1.0  		0.32400217746431337 		0.032633231916772996  0.8253242749421594 		Uiso   ? 		N 		-0.42506
N 1.0  		0.8391360105380776 		0.28094022965943666  0.6376605818564423 		Uiso   ? 		N 		-0.42506
N 1.0  		0.4863602842007775 		0.36755324369418  0.8193846554172158 		Uiso   ? 		N 		-0.42506
N 1.0  		1.0055619787482757 		0.6099715379330651  0.609800937894207 		Uiso   ? 		N 		-0.42506
N 1.0  		0.6527621806883912 		0.6978113651977623  1.8159679599952483 		Uiso   ? 		N 		-0.42506
N 1.0  		0.7083021222099863 		1.0749337520855826  0.6612776404437178 		Uiso   ? 		N 		-0.42790
N 1.0  		0.6537577239442508 		-0.002698989105898518  0.8652045774667806 		Uiso   ? 		N 		-0.42790
N 1.0  		0.37630662295579687 		0.4122092452645009  0.6747124941310902 		Uiso   ? 		N 		-0.42790
N 1.0  		0.3196883235278054 		0.32829522033565617  0.8810435628666302 		Uiso   ? 		N 		-0.42790
N 1.0  		0.5411312778236552 		0.7427127294140741  0.6523682111563026 		Uiso   ? 		N 		-0.42790
N 1.0  		0.4895011815414989 		0.666650309156934  0.8800536262791395 		Uiso   ? 		N 		-0.42790
N 1.0  		0.20601702179125803 		1.0771420158994995  0.6581664111687474 		Uiso   ? 		N 		-0.42790
N 1.0  		0.15534559007262264 		-0.0029443517518892926  0.8697300018667377 		Uiso   ? 		N 		-0.42790
N 1.0  		0.8798995337539345 		0.4104917067425656  0.6749953331560875 		Uiso   ? 		N 		-0.42790
N 1.0  		-0.17949923471942852 		0.3307488467955639  0.8854275677540885 		Uiso   ? 		N 		-0.42790
N 1.0  		1.0418720059680602 		0.7412405535381293  0.6495398209063293 		Uiso   ? 		N 		-0.42790
N 1.0  		-0.013136684054135539 		0.6651781332809893  0.8676087091792577 		Uiso   ? 		N 		-0.42790
N 1.0  		0.4003748398380612 		0.2988517028167632  0.9050848799914017 		Uiso   ? 		N 		-0.42388
N 1.0  		0.3097022593502969 		0.37589557365786636  0.7263306161930999 		Uiso   ? 		N 		-0.42388
N 1.0  		0.5632542138095216 		0.6288644616743548  0.8951855141164957 		Uiso   ? 		N 		-0.42388
N 1.0  		0.48056877060279013 		0.7125331239572088  0.7087945966432664 		Uiso   ? 		N 		-0.42388
N 1.0  		0.736907169024883 		0.9642751987437433  1.9019510235944315 		Uiso   ? 		N 		-0.42388
N 1.0  		0.6462128379604938 		1.0489253116105606  0.7165726698306926 		Uiso   ? 		N 		-0.42388
N 1.0  		0.9023511631941228 		0.30155069192266176  0.9074890117038789 		Uiso   ? 		N 		-0.42388
N 1.0  		0.8124146612596437 		0.3800667386397095  0.7251992600931106 		Uiso   ? 		N 		-0.42388
N 1.0  		0.07089921042226474 		0.6318088134262441  0.9021150702289299 		Uiso   ? 		N 		-0.42388
N 1.0  		0.9823566755091065 		0.7140052998331535  0.7031378161433203 		Uiso   ? 		N 		-0.42388
N 1.0  		0.2345234605698582 		0.9650112866817157  0.9077718507288761 		Uiso   ? 		N 		-0.42388
N 1.0  		1.1494793764502689 		1.0486799489645697  0.7137442795807194 		Uiso   ? 		N 		-0.42388
N 1.0  		0.4798886268705085 		1.0894101481990384  0.520423805995056 		Uiso   ? 		N 		-0.42373
N 1.0  		-0.15387526715102207 		0.023309451369123567  0.7465536064804077 		Uiso   ? 		N 		-0.42373
N 1.0  		0.6492120640637369 		0.41957012464422416  0.5315959474824499 		Uiso   ? 		N 		-0.42373
N 1.0  		0.011407237406927534 		0.3543036608106782  0.7397654698804722 		Uiso   ? 		N 		-0.42373
N 1.0  		0.8208146538695154 		0.7576798508195113  0.5400811182323693 		Uiso   ? 		N 		-0.42373
N 1.0  		0.18177655314700886 		0.6946216507998823  0.7343915284055232 		Uiso   ? 		N 		-0.42373
N 1.0  		0.9836282891501114 		1.0867111590931398  0.5241007133200211 		Uiso   ? 		N 		-0.42373
N 1.0  		0.3424513108196315 		0.019383649033271177  0.7440080552554319 		Uiso   ? 		N 		-0.42373
N 1.0  		1.1495759553086515 		0.4156443223083718  0.5293332352824713 		Uiso   ? 		N 		-0.42373
N 1.0  		0.5111183840351171 		0.3533222102267151  0.7376441771929925 		Uiso   ? 		N 		-0.42373
N 1.0  		0.3197956968619162 		0.7581705761114929  0.5352728548074149 		Uiso   ? 		N 		-0.42373
N 1.0  		0.6789507706610212 		0.6843164196682698  0.7449979918429225 		Uiso   ? 		N 		-0.42373
N 1.0  		0.8130406397058242 		0.46079104917067426  0.594527630544352 		Uiso   ? 		N 		-0.42335
N 1.0  		0.18261370686657263 		0.38988124447934047  0.7936463041424604 		Uiso   ? 		N 		-0.42335
N 1.0  		0.981968346538808 		0.7922759839042105  0.5786886451445025 		Uiso   ? 		N 		-0.42335
N 1.0  		0.3494910482899734 		0.7240651683187752  0.7997273431799027 		Uiso   ? 		N 		-0.42335
N 1.0  		1.148089157047357 		0.12538031210128572  0.5803856792944864 		Uiso   ? 		N 		-0.42335
N 1.0  		0.5171978980411256 		0.058641672391795074  0.7908179138924872 		Uiso   ? 		N 		-0.42335
N 1.0  		0.3143590745938501 		0.46128177446265584  0.5853353622319394 		Uiso   ? 		N 		-0.42335
N 1.0  		0.6822855076724416 		0.3930709588772206  0.794636240729951 		Uiso   ? 		N 		-0.42335
N 1.0  		0.47919900356144485 		0.7888409068603396  0.5795371622194944 		Uiso   ? 		N 		-0.42335
N 1.0  		-0.1505552682694266 		0.7248012562567476  0.8031214114798704 		Uiso   ? 		N 		-0.42335
N 1.0  		0.6487219779732257 		0.128324663853175  0.5857596207694353 		Uiso   ? 		N 		-0.42335
N 1.0  		0.016448372273872712 		0.0583963097458043  0.7909593334049859 		Uiso   ? 		N 		-0.42335
N 1.0  		1.118882771803809 		0.7171950142310335  0.6141849427816652 		Uiso   ? 		N 		-0.42521
N 1.0  		-0.23638871823878022 		0.8042987535577585  0.8302739578796124 		Uiso   ? 		N 		-0.42521
N 1.0  		0.28431800276072045 		1.0501521248405143  0.6273369574440403 		Uiso   ? 		N 		-0.42521
N 1.0  		-0.06981005804014004 		0.13789380704681523  0.8290011822671245 		Uiso   ? 		N 		-0.42521
N 1.0  		0.44943330347563826 		0.38252036509961723  0.6228115330440833 		Uiso   ? 		N 		-0.42521
N 1.0  		0.09403547990263084 		0.47281381882422224  0.81683910419224 		Uiso   ? 		N 		-0.42521
N 1.0  		0.6179536252096587 		0.7174403768770243  0.6187103671816223 		Uiso   ? 		N 		-0.42521
N 1.0  		0.2670509646010037 		0.8082245558936109  0.8305567969046097 		Uiso   ? 		N 		-0.42521
N 1.0  		0.7864170058756628 		1.0530964765924036  0.6266298598815471 		Uiso   ? 		N 		-0.42521
N 1.0  		0.4354675000368974 		0.13912062027676905  0.8239100798171728 		Uiso   ? 		N 		-0.42521
N 1.0  		0.950739286969279 		0.38472862891353427  0.6267712793940458 		Uiso   ? 		N 		-0.42521
N 1.0  		0.5973918288058546 		0.4723230935322407  0.8193846554172158 		Uiso   ? 		N 		-0.42521
N 1.0  		0.31669942058044664 		0.17739719305132987  0.6680657770436534 		Uiso   ? 		N 		-0.42139
N 1.0  		0.26455453354018266 		0.10158013544018059  0.8741140067541959 		Uiso   ? 		N 		-0.42139
N 1.0  		0.48465680811119083 		0.5150161939346355  0.6568936355562595 		Uiso   ? 		N 		-0.42139
N 1.0  		0.43322160675566834 		0.4355186966336245  0.8772252360291665 		Uiso   ? 		N 		-0.42139
N 1.0  		0.6538058027393521 		0.848218667190107  0.6559036989687689 		Uiso   ? 		N 		-0.42139
N 1.0  		0.5988897458359562 		0.7706840710570223  0.872841231141708 		Uiso   ? 		N 		-0.42139
N 1.0  		0.8200164236613497 		0.18107763274119149  0.664106030693691 		Uiso   ? 		N 		-0.42139
N 1.0  		-0.23813147550062042 		0.10256158602414368  0.8789222701791503 		Uiso   ? 		N 		-0.42139
N 1.0  		0.9847271963931752 		0.5130532927667093  0.6551966014062757 		Uiso   ? 		N 		-0.42139
N 1.0  		-0.06932412728055809 		0.44018058690744927  0.8879731189790643 		Uiso   ? 		N 		-0.42139
N 1.0  		1.152879478850553 		0.8472372166061439  0.6544895038437823 		Uiso   ? 		N 		-0.42139
N 1.0  		0.09701203051619134 		0.7694572578270685  0.8711441969917242 		Uiso   ? 		N 		-0.42139
N 1.0  		0.3490179568251794 		0.2998331534007263  0.9168226995287901 		Uiso   ? 		N 		-0.26907
N 1.0  		0.2616401345815025 		0.3800667386397095  0.7114815673807409 		Uiso   ? 		N 		-0.26907
N 1.0  		0.5160989907980618 		0.6322995387182255  0.9118730165913372 		Uiso   ? 		N 		-0.26907
N 1.0  		0.4278559337653304 		0.715477475709098  0.7079460795682746 		Uiso   ? 		N 		-0.26907
N 1.0  		0.6840804500513903 		0.9686917263715773  0.9046606214539058 		Uiso   ? 		N 		-0.26907
N 1.0  		0.5971035364297882 		1.0501521248405143  0.7008751039433417 		Uiso   ? 		N 		-0.26907
N 1.0  		0.850446620077701 		0.302286779860634  0.918519733678774 		Uiso   ? 		N 		-0.26907
N 1.0  		0.7617369157320305 		0.3832564530375896  0.7162898308056953 		Uiso   ? 		N 		-0.26907
N 1.0  		1.0183447453944692 		0.6342624398861518  0.9081961092663721 		Uiso   ? 		N 		-0.26907
N 1.0  		0.9301016883617379 		0.7174403768770243  0.7059662063932933 		Uiso   ? 		N 		-0.26907
N 1.0  		0.18199024455929574 		0.9674649131416234  0.9124386946413319 		Uiso   ? 		N 		-0.26907
N 1.0  		1.0992835523353315 		1.0511335754244775  0.7000265868683497 		Uiso   ? 		N 		-0.26907
N 1.0  		0.4334278154440537 		1.0921091373049368  0.5369698889573988 		Uiso   ? 		N 		-0.27158
N 1.0  		-0.20788064026815478 		0.022818726077142016  0.7546145186928312 		Uiso   ? 		N 		-0.27158
N 1.0  		0.5958858284318728 		0.4212876631661596  0.5342829182199244 		Uiso   ? 		N 		-0.27158
N 1.0  		-0.034431377602274965 		0.35994700166846605  0.7541902601553352 		Uiso   ? 		N 		-0.27158
N 1.0  		0.7672671304424739 		0.7576798508195113  0.5470106743448034 		Uiso   ? 		N 		-0.27158
N 1.0  		0.12888177433669235 		0.691677299047993  0.7486748991678875 		Uiso   ? 		N 		-0.27158
N 1.0  		0.9355661643813169 		1.0908823240749828  0.5390911816448786 		Uiso   ? 		N 		-0.27158
N 1.0  		0.29389846701531364 		0.022573363431151242  0.7582914260177963 		Uiso   ? 		N 		-0.27158
N 1.0  		1.0971172756118013 		0.4207969378741781  0.5310302694324552 		Uiso   ? 		N 		-0.27158
N 1.0  		0.4631789390252036 		0.357738737854549  0.7520689674678553 		Uiso   ? 		N 		-0.27158
N 1.0  		0.2673434936419546 		0.7586613014034744  0.5458793182448142 		Uiso   ? 		N 		-0.27158
N 1.0  		0.6266059731002039 		0.6879968593581314  0.751361869905362 		Uiso   ? 		N 		-0.27158
N 1.0  		0.7623628941782111 		0.4639807635685544  0.5861838793069312 		Uiso   ? 		N 		-0.26878
N 1.0  		0.1299666087199772 		0.3938070468151929  0.7869995870550236 		Uiso   ? 		N 		-0.26878
N 1.0  		0.931766045946982 		0.799391500637943  0.5871738158944219 		Uiso   ? 		N 		-0.26878
N 1.0  		0.2976698391101118 		0.7292177838845815  0.7971817919549268 		Uiso   ? 		N 		-0.26878
N 1.0  		1.0974859478334562 		0.1312690156050643  0.5735975426945509 		Uiso   ? 		N 		-0.26878
N 1.0  		0.4645836692399624 		0.06305820001962902  0.7895451382799994 		Uiso   ? 		N 		-0.26878
N 1.0  		0.262005479410185 		0.463244675630582  0.580527098806985 		Uiso   ? 		N 		-0.26878
N 1.0  		0.6290009390088576 		0.396996761213073  0.7923735285299724 		Uiso   ? 		N 		-0.26878
N 1.0  		0.42752454586304844 		0.7930120718421828  0.5851939427194407 		Uiso   ? 		N 		-0.26878
N 1.0  		-0.20128995486505624 		0.7287270585926  0.7950604992674469 		Uiso   ? 		N 		-0.26878
N 1.0  		0.5981428404819091 		0.13298655412699972  0.5776987085570119 		Uiso   ? 		N 		-0.26878
N 1.0  		-0.03632140563160354 		0.06207674943566592  0.7956261773174416 		Uiso   ? 		N 		-0.26878
N 1.0  		1.0654097846904798 		0.7198940033369321  0.6102251964317029 		Uiso   ? 		N 		-0.27370
N 1.0  		0.7109341369745434 		0.8065070173716754  0.8268798895796448 		Uiso   ? 		N 		-0.27370
N 1.0  		0.23139267575093103 		1.0530964765924036  0.621255918406598 		Uiso   ? 		N 		-0.27370
N 1.0  		-0.12369922787528044 		0.14231033467464912  0.830415377392111 		Uiso   ? 		N 		-0.27370
N 1.0  		0.39944349305614163 		0.38963588183334974  0.6284683135440295 		Uiso   ? 		N 		-0.27370
N 1.0  		0.04265452516716467 		0.4750220826381392  0.8281526651921326 		Uiso   ? 		N 		-0.27370
N 1.0  		0.5677994680630012 		0.722102267150849  0.6100837769192042 		Uiso   ? 		N 		-0.27370
N 1.0  		0.2136918596237074 		0.8094513691235646  0.8325366700795909 		Uiso   ? 		N 		-0.27370
N 1.0  		0.7332134500026796 		1.0550593777603299  0.6238014696315738 		Uiso   ? 		N 		-0.27370
N 1.0  		0.38232968285477864 		0.14206497202865837  0.8297082798296178 		Uiso   ? 		N 		-0.27370
N 1.0  		0.8981250581681157 		0.3891451565413682  0.6305896062315094 		Uiso   ? 		N 		-0.27370
N 1.0  		0.5448104693501237 		0.4772303464520562  0.8223544651796877 		Uiso   ? 		N 		-0.27370
N 1.0  		0.26521338133179545 		0.18279517126312692  0.6716012648561197 		Uiso   ? 		N 		-0.27275
N 1.0  		0.21642667008052388 		0.10476984983806066  0.8594063774543357 		Uiso   ? 		N 		-0.27275
N 1.0  		0.43818072258499974 		0.5206595347924232  0.6725912014436104 		Uiso   ? 		N 		-0.27275
N 1.0  		0.38141567167554313 		0.4377269604475415  0.8700128408917349 		Uiso   ? 		N 		-0.27275
N 1.0  		0.6021466191406921 		0.849445480420061  0.6660859038686722 		Uiso   ? 		N 		-0.27275
N 1.0  		0.546389399170826 		0.7736284228089116  0.8644974799042874 		Uiso   ? 		N 		-0.27275
N 1.0  		0.7672049787875934 		0.18254980861713613  0.6720255233936158 		Uiso   ? 		N 		-0.27275
N 1.0  		0.7157545033323345 		0.10599666306801453  0.8620933481918102 		Uiso   ? 		N 		-0.27275
N 1.0  		0.9418963131420182 		0.5191873589164786  0.6741468160810956 		Uiso   ? 		N 		-0.27275
N 1.0  		-0.12132727843327631 		0.4394444989694769  0.8743968457791932 		Uiso   ? 		N 		-0.27275
N 1.0  		1.1014656547696546 		0.8489547551280794  0.6643888697186884 		Uiso   ? 		N 		-0.27275
N 1.0  		0.046424095402026855 		0.7724016095789578  0.8601134750168289 		Uiso   ? 		N 		-0.27275
N 1.0  		0.3447319889652178 		0.2453626459907744  0.9048020409664044 		Uiso   ? 		N 		-0.42938
N 1.0  		0.25433763734064746 		0.32338796741584064  0.7186939625181724 		Uiso   ? 		N 		-0.42938
N 1.0  		0.5078655200772878 		0.577583668662283  0.8985795824164635 		Uiso   ? 		N 		-0.42938
N 1.0  		0.42633233814565274 		0.6610069682991462  0.7147342161682101 		Uiso   ? 		N 		-0.42938
N 1.0  		0.680791194362212 		0.9132397683776623  1.9009610870069409 		Uiso   ? 		N 		-0.42938
N 1.0  		0.59023481715644 		0.9951908921385809  0.7128957625057275 		Uiso   ? 		N 		-0.42938
N 1.0  		0.8438079862223782 		0.25076062420257145  0.901690811691434 		Uiso   ? 		N 		-0.42938
N 1.0  		0.7575648300081019 		0.3273137697516931  0.719259640568167 		Uiso   ? 		N 		-0.42938
N 1.0  		1.0142296007385574 		0.577583668662283  0.905367719016399 		Uiso   ? 		N 		-0.42938
N 1.0  		0.9281290406748169 		0.6641966826970263  0.7126129234807301 		Uiso   ? 		N 		-0.42938
N 1.0  		0.17962548587314792 		0.9147119442536069  0.9015493921789353 		Uiso   ? 		N 		-0.42938
N 1.0  		1.0933546041647502 		0.9959269800765532  0.7107744698182477 		Uiso   ? 		N 		-0.42938
N 1.0  		0.42910897823866 		1.0371479046030034  0.5313131084574525 		Uiso   ? 		N 		-0.42734
N 1.0  		-0.2098532879550758 		-0.030424968102856022  0.7455636698929172 		Uiso   ? 		N 		-0.42734
N 1.0  		0.5933807947411482 		0.3648542545882815  0.5284847182074794 		Uiso   ? 		N 		-0.42734
N 1.0  		-0.04355647598064713 		0.3030228677986064  0.7461293479429117 		Uiso   ? 		N 		-0.42734
N 1.0  		0.7650819925832232 		0.7044361566395133  0.5344243377324229 		Uiso   ? 		N 		-0.42734
N 1.0  		0.12663969540942532 		0.6391696928059672  0.7353814649930139 		Uiso   ? 		N 		-0.42734
N 1.0  		0.9314510197254047 		1.034203552851114  0.5347071767574203 		Uiso   ? 		N 		-0.42734
N 1.0  		0.2877658262952507 		-0.030915693394837573  0.7438666357429332 		Uiso   ? 		N 		-0.42734
N 1.0  		1.0931007389921856 		0.36559034252625383  0.5222622596575385 		Uiso   ? 		N 		-0.42734
N 1.0  		0.456636592060218 		0.3013053292766709  0.7447151528179252 		Uiso   ? 		N 		-0.42734
N 1.0  		0.2624529246104367 		0.704681519285504  0.5318787865074471 		Uiso   ? 		N 		-0.42734
N 1.0  		0.6211020052742817 		0.6327902640102072  0.7424524406179467 		Uiso   ? 		N 		-0.42734
N 1.0  		0.7574963968692774 		0.4087741682206301  0.5952347281068452 		Uiso   ? 		N 		-0.42922
N 1.0  		0.12509131378819566 		0.33688291294533323  0.7909593334049859 		Uiso   ? 		N 		-0.42922
N 1.0  		0.9288929729796147 		0.7422220041220925  0.5900022061443949 		Uiso   ? 		N 		-0.42922
N 1.0  		0.29306397541867624 		0.6715575620767495  0.8018486358673824 		Uiso   ? 		N 		-0.42922
N 1.0  		1.091053863643486 		1.0741976641476103  0.581375615881977 		Uiso   ? 		N 		-0.42922
N 1.0  		0.4617522632408754 		0.008096967317695556  0.7964746943924335 		Uiso   ? 		N 		-0.42922
N 1.0  		0.25686955086090535 		0.4087741682206301  0.5900022061443949 		Uiso   ? 		N 		-0.42922
N 1.0  		0.625367715765621 		0.33958190205123173  0.7947776602424497 		Uiso   ? 		N 		-0.42922
N 1.0  		0.4235320809660172 		0.7365786632643047  0.5864667183319286 		Uiso   ? 		N 		-0.42922
N 1.0  		-0.20746426255339928 		0.6730297379526942  0.8031214114798704 		Uiso   ? 		N 		-0.42922
N 1.0  		0.5910732857749502 		1.0759152026695455  0.5847696841819446 		Uiso   ? 		N 		-0.42922
N 1.0  		-0.03867089021801502 		0.0063794287957601335  0.8005758602548945 		Uiso   ? 		N 		-0.42922
N 1.0  		1.0616298099657782 		0.663460594759054  0.612205069606684 		Uiso   ? 		N 		-0.43180
N 1.0  		0.7084050315612346 		0.7513004220237511  0.8237686603046742 		Uiso   ? 		N 		-0.43180
N 1.0  		0.22798074030287196 		0.997399155952498  0.6249328257315631 		Uiso   ? 		N 		-0.43180
N 1.0  		-0.1270213529098909 		0.08636765138875258  0.8256071139671568 		Uiso   ? 		N 		-0.43180
N 1.0  		0.393718237435042 		0.33271174796349007  0.6295996696440188 		Uiso   ? 		N 		-0.43180
N 1.0  		0.034968714549930724 		0.4205515752281873  0.8157077480922508 		Uiso   ? 		N 		-0.43180
N 1.0  		0.5611344413391348 		0.6654234959269801  0.6148920403441586 		Uiso   ? 		N 		-0.43180
N 1.0  		0.21183309407281936 		0.754735499067622  0.8249000164046635 		Uiso   ? 		N 		-0.43180
N 1.0  		0.7304061157261768 		0.9988713318284425  0.6236600501190752 		Uiso   ? 		N 		-0.43180
N 1.0  		0.379399668819395 		0.08563156345078025  0.8249000164046635 		Uiso   ? 		N 		-0.43180
N 1.0  		0.8955630834093747 		0.3334478359014624  0.6351150306314663 		Uiso   ? 		N 		-0.43180
N 1.0  		0.5412189130751671 		0.42202375110413193  0.8161320066297467 		Uiso   ? 		N 		-0.43180
N 1.0  		0.2602446566255476 		1.1269506330356267  0.6676415185061574 		Uiso   ? 		N 		-0.42926
N 1.0  		0.2095250814617436 		0.04931789184414565  0.8714270360167214 		Uiso   ? 		N 		-0.42926
N 1.0  		0.42896581379317894 		0.4639807635685544  0.6658030648436749 		Uiso   ? 		N 		-0.42926
N 1.0  		0.3775218148148085 		0.3827657277456081  0.8790636896916489 		Uiso   ? 		N 		-0.42926
N 1.0  		0.5974356709360715 		0.7949749730101091  0.6557622794562702 		Uiso   ? 		N 		-0.42926
N 1.0  		0.5431001434816478 		0.7181764648149966  0.872841231141708 		Uiso   ? 		N 		-0.42926
N 1.0  		0.7643042147366242 		1.1274413583276082  0.6643888697186884 		Uiso   ? 		N 		-0.42926
N 1.0  		0.7057553725420599 		0.05029934242810875  0.8745382652916919 		Uiso   ? 		N 		-0.42926
N 1.0  		0.9329837049359755 		0.46226322504661893  0.6656616453311762 		Uiso   ? 		N 		-0.42926
N 1.0  		-0.12494290643081712 		0.3854647168515066  0.8864175043415791 		Uiso   ? 		N 		-0.42926
N 1.0  		1.0979069678401305 		0.7942388850721367  0.6544895038437823 		Uiso   ? 		N 		-0.42926
N 1.0  		0.04149185940222888 		0.7162135636470705  0.867891548204255 		Uiso   ? 		N 		-0.42926
N 1.0  		0.46292466822560496 		0.24290901953086663  0.914418567816313 		Uiso   ? 		N 		-0.46006
N 1.0  		0.3752533430189977 		0.32510550593777604  0.7063904649307893 		Uiso   ? 		N 		-0.46006
N 1.0  		0.628419662955884 		0.5739032289724213  0.9043777824289083 		Uiso   ? 		N 		-0.46006
N 1.0  		0.5441176323070765 		0.6619884188831093  0.6912585770934331 		Uiso   ? 		N 		-0.46006
N 1.0  		0.8002588146565763 		0.9107861419177545  0.9289847776036747 		Uiso   ? 		N 		-0.46006
N 1.0  		0.7125962870728171 		0.9947001668465995  0.6983295527183658 		Uiso   ? 		N 		-0.46006
N 1.0  		0.9628242333035398 		0.24315438217685742  0.919368250753766 		Uiso   ? 		N 		-0.46006
N 1.0  		0.8748658816108908 		0.3226518794778683  0.715158474705706 		Uiso   ? 		N 		-0.46006
N 1.0  		0.13015660171168048 		0.5790558445382276  0.9074890117038789 		Uiso   ? 		N 		-0.46006
N 1.0  		1.0480545106592725 		0.6622337815291001  0.6899858014809451 		Uiso   ? 		N 		-0.46006
N 1.0  		0.29812046571931317 		0.9120129551477084  0.9323788459036424 		Uiso   ? 		N 		-0.46006
N 1.0  		0.2133999312027352 		0.9954362547845718  0.7066733039557866 		Uiso   ? 		N 		-0.46006
N 1.0  		0.5432074031567695 		1.0354303660810678  0.5263634255199996 		Uiso   ? 		N 		-0.46324
N 1.0  		-0.09292675210581795 		-0.031161056040828347  0.7602712991927775 		Uiso   ? 		N 		-0.46324
N 1.0  		0.710324925836102 		0.36755324369418  0.5478591914197953 		Uiso   ? 		N 		-0.46324
N 1.0  		0.07086832124582493 		0.2998331534007263  0.7389169528054802 		Uiso   ? 		N 		-0.46324
N 1.0  		0.8856866000529473 		0.704681519285504  0.5477177719072968 		Uiso   ? 		N 		-0.46324
N 1.0  		0.2399034337379532 		0.6345078025321426  0.7543316796678338 		Uiso   ? 		N 		-0.46324
N 1.0  		1.0469558630592202 		1.0344489154971048  0.5300403328449647 		Uiso   ? 		N 		-0.46324
N 1.0  		0.4136586163506289 		-0.029443517518892924  0.7587156845552923 		Uiso   ? 		N 		-0.46324
N 1.0  		0.2138492752380238 		0.3660810678182354  0.5448893816573236 		Uiso   ? 		N 		-0.46324
N 1.0  		0.571722931526263 		0.296888801648837  0.7465536064804077 		Uiso   ? 		N 		-0.46324
N 1.0  		0.38741474118589597 		0.708116596329375  0.5454550597073182 		Uiso   ? 		N 		-0.46324
N 1.0  		0.7419015076706396 		0.629600549612327  0.7561701333303165 		Uiso   ? 		N 		-0.46324
N 1.0  		0.8759256380245783 		0.4050937285307685  0.5786886451445025 		Uiso   ? 		N 		-0.46159
N 1.0  		0.25001378454133427 		0.3444891549710472  0.7775244797176135 		Uiso   ? 		N 		-0.46159
N 1.0  		1.0518590440675482 		0.7412405535381293  0.5477177719072968 		Uiso   ? 		N 		-0.46159
N 1.0  		0.4114538707516565 		0.672048287368731  0.7868581675425249 		Uiso   ? 		N 		-0.46159
N 1.0  		0.21349352364511237 		1.0729708509176565  0.5699206353695858 		Uiso   ? 		N 		-0.46159
N 1.0  		0.5786612038444375 		0.00392580233585239  0.7714434406801713 		Uiso   ? 		N 		-0.46159
N 1.0  		0.37804589015675377 		0.4080380802826578  0.580527098806985 		Uiso   ? 		N 		-0.46159
N 1.0  		0.7463250884122514 		0.3435077043870841  0.7800700309425893 		Uiso   ? 		N 		-0.46159
N 1.0  		0.5508729564053814 		0.7422220041220925  0.5519603572822563 		Uiso   ? 		N 		-0.46159
N 1.0  		-0.086434674739016 		0.673275100598685  0.776110284592627 		Uiso   ? 		N 		-0.46159
N 1.0  		0.7125847950020091 		1.075424477377564  0.5679407621946045 		Uiso   ? 		N 		-0.46159
N 1.0  		0.08036527325480172 		0.008587692609677105  0.769887826042686 		Uiso   ? 		N 		-0.46159
N 1.0  		1.1798160127492767 		0.665668858572971  0.6301653476940134 		Uiso   ? 		N 		-0.46276
N 1.0  		-0.16668411801382604 		0.7584159387574837  0.8506383676794189 		Uiso   ? 		N 		-0.46276
N 1.0  		0.3500334331565822 		1.0018156835803318  0.6362463867314556 		Uiso   ? 		N 		-0.46276
N 1.0  		-0.0010868958862326195 		0.0900480910786142  0.8393248066795264 		Uiso   ? 		N 		-0.46276
N 1.0  		0.5139788773507079 		0.33099420944155467  0.6230943720690806 		Uiso   ? 		N 		-0.46276
N 1.0  		0.16039485729236974 		0.419815487290215  0.8346579627670708 		Uiso   ? 		N 		-0.46276
N 1.0  		0.6770795391173458 		0.6627245068210816  0.6327108989189892 		Uiso   ? 		N 		-0.46276
N 1.0  		0.3331344342735081 		0.7606242025714006  0.8492241725544324 		Uiso   ? 		N 		-0.46276
N 1.0  		0.8493436711626969 		0.9996074197664148  0.6389333574689301 		Uiso   ? 		N 		-0.46276
N 1.0  		0.503250891088038 		0.09152026695455885  0.8413046798545076 		Uiso   ? 		N 		-0.46276
N 1.0  		1.013633082910881 		0.3307488467955639  0.6172961720566357 		Uiso   ? 		N 		-0.46276
N 1.0  		0.6608508800966924 		0.42202375110413193  0.8405975822920143 		Uiso   ? 		N 		-0.46276
N 1.0  		0.3839051392984861 		1.1252330945136915  0.6708941672936265 		Uiso   ? 		N 		-0.46423
N 1.0  		0.32740018603661614 		0.05005397978211797  0.8697300018667377 		Uiso   ? 		N 		-0.46423
N 1.0  		0.5461682573596713 		0.45784669741878503  0.6583078306812461 		Uiso   ? 		N 		-0.46423
N 1.0  		0.4929521218349117 		0.3803121012857003  1.8633434966822984 		Uiso   ? 		N 		-0.46423
N 1.0  		0.714452017198778 		0.793993522426146  0.66947997216864 		Uiso   ? 		N 		-0.46423
N 1.0  		0.6644408295046572 		0.7198940033369321  1.8607979454573225 		Uiso   ? 		N 		-0.46423
N 1.0  		0.8842625540665121 		1.1259691824516638  0.6713184258311224 		Uiso   ? 		N 		-0.46423
N 1.0  		-0.17534508521816278 		0.04539208950829326  0.872416972604212 		Uiso   ? 		N 		-0.46423
N 1.0  		1.0471062015766694 		0.4593188732947297  0.6595806062937339 		Uiso   ? 		N 		-0.46423
N 1.0  		-0.009497325310977467 		0.3800667386397095  0.8739725872416972 		Uiso   ? 		N 		-0.46423
N 1.0  		0.21457652384342743 		0.7925213465502012  0.6676415185061574 		Uiso   ? 		N 		-0.46423
N 1.0  		0.16020812704357154 		0.7152321130631073  0.8649217384417832 		Uiso   ? 		N 		-0.46423
N 1.0  		0.4600100419489468 		0.2961527137108647  0.9118730165913372 		Uiso   ? 		N 		-0.42409
N 1.0  		0.36932218736144606 		0.3761409363038571  0.7141685381182153 		Uiso   ? 		N 		-0.42409
N 1.0  		0.6242870367132651 		0.626410835214447  0.9021150702289299 		Uiso   ? 		N 		-0.42409
N 1.0  		0.5401076858233386 		0.7147413877711257  0.6959254210058887 		Uiso   ? 		N 		-0.42409
N 1.0  		0.794351730721609 		0.9605947590538817  0.9195096702662646 		Uiso   ? 		N 		-0.42409
N 1.0  		0.7085293995210626 		1.0481892236725883  0.7063904649307893 		Uiso   ? 		N 		-0.42409
N 1.0  		0.9589040972332504 		0.29566198841888314  0.9197925092912619 		Uiso   ? 		N 		-0.42409
N 1.0  		0.8709786148860337 		0.37565021101187557  0.7198253186181617 		Uiso   ? 		N 		-0.42409
N 1.0  		0.12976778578039236 		0.6335263519481794  0.9073475921913803 		Uiso   ? 		N 		-0.42409
N 1.0  		1.041019237171793 		0.7110609480812642  0.6981881332058673 		Uiso   ? 		N 		-0.42409
N 1.0  		0.29241059785693896 		0.9647659240357249  0.9229037385662324 		Uiso   ? 		N 		-0.42409
N 1.0  		0.20987190613167267 		1.047453135734616  0.7107744698182477 		Uiso   ? 		N 		-0.42409
N 1.0  		0.5407418289473548 		1.087447247031112  0.5198581279450614 		Uiso   ? 		N 		-0.42417
N 1.0  		-0.09821163962353315 		0.021591912847188144  0.7564529723553137 		Uiso   ? 		N 		-0.42417
N 1.0  		0.707434371282028 		0.41957012464422416  0.5392326011573774 		Uiso   ? 		N 		-0.42417
N 1.0  		0.07016840710591073 		0.35283148493473354  0.7324116552305422 		Uiso   ? 		N 		-0.42417
N 1.0  		0.8808836339479078 		0.7566984002355482  0.5446065426323262 		Uiso   ? 		N 		-0.42417
N 1.0  		0.23808412766837483 		0.6882422220041222  0.749381996730381 		Uiso   ? 		N 		-0.42417
N 1.0  		1.0416052368506408 		1.086220433801158  0.5262220060075009 		Uiso   ? 		N 		-0.42417
N 1.0  		0.4050373036205462 		0.017911473157326527  0.7483920601428903 		Uiso   ? 		N 		-0.42417
N 1.0  		1.2080436220447044 		0.41613504760035336  0.5342829182199244 		Uiso   ? 		N 		-0.42417
N 1.0  		0.5694457757665934 		0.35013249582883504  0.7410382454929602 		Uiso   ? 		N 		-0.42417
N 1.0  		0.38273445483973717 		0.7603788399254099  0.543475186532337 		Uiso   ? 		N 		-0.42417
N 1.0  		0.73655088146206 		0.6813720679163805  0.7506547723428688 		Uiso   ? 		N 		-0.42417
N 1.0  		0.872978142402488 		0.45784669741878503  0.585476781744438 		Uiso   ? 		N 		-0.42278
N 1.0  		0.24458862201904244 		0.3935616841692021  0.7875652651050181 		Uiso   ? 		N 		-0.42278
N 1.0  		1.0393800388901018 		0.7881048189223674  0.5567686207072107 		Uiso   ? 		N 		-0.42278
N 1.0  		0.4091438456465548 		0.7248012562567476  0.7922321090174739 		Uiso   ? 		N 		-0.42278
N 1.0  		1.209744176368353 		0.12587103739326727  0.5738803817195481 		Uiso   ? 		N 		-0.42278
N 1.0  		0.574594316292683 		0.05741485916184121  0.7762517041051256 		Uiso   ? 		N 		-0.42278
N 1.0  		0.374763224603453 		0.46054568652468353  0.580527098806985 		Uiso   ? 		N 		-0.42278
N 1.0  		0.7421507952013524 		0.3938070468151929  0.7882723626675114 		Uiso   ? 		N 		-0.42278
N 1.0  		0.5401596112974356 		0.7900677200902936  0.5593141719321866 		Uiso   ? 		N 		-0.42278
N 1.0  		-0.09049508581388199 		0.722102267150849  0.7906764943799887 		Uiso   ? 		N 		-0.42278
N 1.0  		0.7105982850893989 		0.13053292766709199  0.5717590890320683 		Uiso   ? 		N 		-0.42278
N 1.0  		0.07650207825252886 		0.0603592109137305  0.7744132504426431 		Uiso   ? 		N 		-0.42278
N 1.0  		1.1761653079193335 		0.7174403768770243  0.6235186306065765 		Uiso   ? 		N 		-0.42447
N 1.0  		-0.1759998423289138 		0.8065070173716754  0.8401733237545184 		Uiso   ? 		N 		-0.42447
N 1.0  		0.34729842770682134 		1.0545686524683484  0.6359635477064584 		Uiso   ? 		N 		-0.42447
N 1.0  		-0.005946803059288741 		0.14280105996663067  0.8340922847170761 		Uiso   ? 		N 		-0.42447
N 1.0  		0.5100258719349864 		0.3830110903915988  0.6204074013316061 		Uiso   ? 		N 		-0.42447
N 1.0  		0.15635204146319953 		0.4720777308862499  0.8247585968921648 		Uiso   ? 		N 		-0.42447
N 1.0  		0.6743533312904328 		0.7171950142310335  0.6349736111189678 		Uiso   ? 		N 		-0.42447
N 1.0  		0.3289031999945926 		0.8116596329374817  0.840739001804513 		Uiso   ? 		N 		-0.42447
N 1.0  		0.8455221431287042 		1.053587201884385  0.636104967218957 		Uiso   ? 		N 		-0.42447
N 1.0  		0.49655078753176896 		0.14059279615271372  0.8319709920295962 		Uiso   ? 		N 		-0.42447
N 1.0  		1.010170796530683 		0.38374717832957117  0.6150334598566572 		Uiso   ? 		N 		-0.42447
N 1.0  		0.6560303187459569 		0.47060555501030527  0.8301325383671138 		Uiso   ? 		N 		-0.42447
N 1.0  		0.3773401324849634 		0.17543429188340368  0.6618433184937125 		Uiso   ? 		N 		-0.42463
N 1.0  		0.32424020024219624 		0.10280694867013446  0.8759524604166785 		Uiso   ? 		N 		-0.42463
N 1.0  		0.5423379317028306 		0.51010894101482  0.6509540160313159 		Uiso   ? 		N 		-0.42463
N 1.0  		0.4909860642838682 		0.43502797134164295  0.8704370994292309 		Uiso   ? 		N 		-0.42463
N 1.0  		0.7121748614391084 		0.8472372166061439  0.6663687428936694 		Uiso   ? 		N 		-0.42463
N 1.0  		0.6597846148810826 		0.7709294337030131  0.8673258701542604 		Uiso   ? 		N 		-0.42463
N 1.0  		0.8780327171841998 		0.17641574246736677  0.668207196556152 		Uiso   ? 		N 		-0.42463
N 1.0  		-0.1790198617706904 		0.09839042104230053  0.879912206766641 		Uiso   ? 		N 		-0.42463
N 1.0  		1.044853117539584 		0.5113357542447738  0.6513782745688119 		Uiso   ? 		N 		-0.42463
N 1.0  		-0.011161082276242767 		0.43453724604966143  0.8792051092041475 		Uiso   ? 		N 		-0.42463
N 1.0  		0.21232343980634216 		0.8445382275002454  0.6584492501937447 		Uiso   ? 		N 		-0.42463
N 1.0  		0.15515980142077018 		0.7667582687211699  0.8702956799167322 		Uiso   ? 		N 		-0.42463
N 1.0  		0.3530673627902271 		0.3555304740406321  0.9231865775912297 		Uiso   ? 		N 		-0.46280
N 1.0  		0.2683708999962333 		0.4377269604475415  0.7051176893183013 		Uiso   ? 		N 		-0.46280
N 1.0  		0.5232788082800359 		0.6887329472961037  0.9189439922162701 		Uiso   ? 		N 		-0.46280
N 1.0  		0.4319053397303781 		0.7711747963490039  0.7032792356558188 		Uiso   ? 		N 		-0.46280
N 1.0  		0.6898626467405062 		1.0248797723034646  0.9138528897663184 		Uiso   ? 		N 		-0.46280
N 1.0  		0.6037926348762389 		1.1056040828344293  0.6898443819684466 		Uiso   ? 		N 		-0.46280
N 1.0  		0.8558848492127589 		0.3565119246245952  0.9296918751661679 		Uiso   ? 		N 		-0.46280
N 1.0  		0.7670612627310553 		0.43895377367749533  0.7078046600557758 		Uiso   ? 		N 		-0.46280
N 1.0  		1.0213317004978693 		0.6899597605260576  0.910741660491348 		Uiso   ? 		N 		-0.46280
N 1.0  		0.9324752446707337 		0.7719108842869762  0.6990366502808592 		Uiso   ? 		N 		-0.46280
N 1.0  		0.18488738924924714 		1.02340759642752  0.914418567816313 		Uiso   ? 		N 		-0.46280
N 1.0  		1.103880618403919 		1.107076258710374  0.6923899331934223 		Uiso   ? 		N 		-0.46280
N 1.0  		0.4381599782553879 		0.14918048876239082  0.5406467962823639 		Uiso   ? 		N 		-0.46634
N 1.0  		-0.2055311556817433 		0.0785160467170478  0.7611198162677694 		Uiso   ? 		N 		-0.46634
N 1.0  		0.6000009730877849 		0.4779664343900285  0.5382426645698867 		Uiso   ? 		N 		-0.46634
N 1.0  		-0.027341370533749493 		0.4166257728923349  0.7582914260177963 		Uiso   ? 		N 		-0.46634
N 1.0  		0.770278157268458 		0.8121503582294632  0.5569100402197094 		Uiso   ? 		N 		-0.46634
N 1.0  		0.1313210693365525 		0.747129257041908  0.7544730991803326 		Uiso   ? 		N 		-0.46634
N 1.0  		0.9367100659856331 		0.14672686230248308  0.5379598255448894 		Uiso   ? 		N 		-0.46634
N 1.0  		0.29859414112019783 		0.07998822259299246  0.7623925918802573 		Uiso   ? 		N 		-0.46634
N 1.0  		1.1016902699578046 		0.4779664343900285  0.5317373669949484 		Uiso   ? 		N 		-0.46634
N 1.0  		0.47078373685183683 		0.41417214643242717  0.7601298796802788 		Uiso   ? 		N 		-0.46634
N 1.0  		0.2697170499509504 		0.8131318088134263  0.5532331328947443 		Uiso   ? 		N 		-0.46634
N 1.0  		0.6310234183418941 		0.7444302679360094  0.7524932260053513 		Uiso   ? 		N 		-0.46634
N 1.0  		0.7691746723835426 		0.5196780842084601  0.5784058061195051 		Uiso   ? 		N 		-0.46541
N 1.0  		0.1356589949956447 		0.450240455393071  0.7826155821675651 		Uiso   ? 		N 		-0.46541
N 1.0  		0.9329216022900169 		0.8531259201099225  0.5791129036819984 		Uiso   ? 		N 		-0.46541
N 1.0  		0.30290437569568807 		0.785160467170478  0.7886966212050074 		Uiso   ? 		N 		-0.46541
N 1.0  		1.1041838439027547 		0.18843851212091473  0.5687892792695965 		Uiso   ? 		N 		-0.46541
N 1.0  		0.46815115379233463 		0.11949160859750713  0.7858682309550343 		Uiso   ? 		N 		-0.46541
N 1.0  		0.26469013392780694 		0.5191873589164786  0.5737389622070496 		Uiso   ? 		N 		-0.46541
N 1.0  		0.6338586386949433 		0.4504858180390618  0.7838883577800531 		Uiso   ? 		N 		-0.46541
N 1.0  		0.4310832327925727 		0.8477279418981255  0.5819412939319716 		Uiso   ? 		N 		-0.46541
N 1.0  		-0.19492722872696805 		0.7856511924624595  0.7918078504799778 		Uiso   ? 		N 		-0.46541
N 1.0  		0.6053467296864676 		0.18819314947492397  0.5661023085321221 		Uiso   ? 		N 		-0.46541
N 1.0  		-0.03525565970201714 		0.11605653155363628  0.7869995870550236 		Uiso   ? 		N 		-0.46541
N 1.0  		1.0706771906214883 		0.7763274119148101  0.6049926744692525 		Uiso   ? 		N 		-0.46460
N 1.0  		0.7129813209751767 		0.862449700657572  0.8336680261795801 		Uiso   ? 		N 		-0.46460
N 1.0  		0.23587947904450343 		0.10967710275787615  0.6184275281566249 		Uiso   ? 		N 		-0.46460
N 1.0  		-0.11932344960187022 		0.1965354794386103  0.8398904847295211 		Uiso   ? 		N 		-0.46460
N 1.0  		0.4044984088148205 		0.44606929041122784  0.622952952556582 		Uiso   ? 		N 		-0.46460
N 1.0  		0.04807748020248617 		0.5321915791539896  0.8347993822795694 		Uiso   ? 		N 		-0.46460
N 1.0  		0.5728303120990959 		0.7797624889586809  0.608103903744223 		Uiso   ? 		N 		-0.46460
N 1.0  		0.21561636386545985 		0.8651486897634705  0.8389005481420305 		Uiso   ? 		N 		-0.46460
N 1.0  		0.7366049330891721 		0.1111492786338208  0.6198417232816115 		Uiso   ? 		N 		-0.46460
N 1.0  		0.3880549384758783 		0.19898910589851804  0.8370620944795478 		Uiso   ? 		N 		-0.46460
N 1.0  		0.9020846537197148 		0.44508783982726474  0.627478376956539 		Uiso   ? 		N 		-0.46460
N 1.0  		0.5501676856945807 		0.5334183923839435  0.8306982164171083 		Uiso   ? 		N 		-0.46460
N 1.0  		0.27051365660823606 		0.23971930513298656  0.6757024307185808 		Uiso   ? 		N 		-0.46862
N 1.0  		0.2204191349775551 		0.16120325841593877  0.8579921823293492 		Uiso   ? 		N 		-0.46862
N 1.0  		0.4438819064835151 		0.5788104818922367  0.6757024307185808 		Uiso   ? 		N 		-0.46862
N 1.0  		0.3852854568136935 		0.4939150063794288  0.862941865266802 		Uiso   ? 		N 		-0.46862
N 1.0  		0.6048312736583139 		0.9053881637059574  0.6699042307061359 		Uiso   ? 		N 		-0.46862
N 1.0  		0.5505614848947546 		0.8295711060948081  0.8582750213543464 		Uiso   ? 		N 		-0.46862
N 1.0  		0.7712872540980733 		0.23873785454902346  0.6762681087685755 		Uiso   ? 		N 		-0.46862
N 1.0  		0.7212103277130881 		0.16365688487584654  0.8594063774543357 		Uiso   ? 		N 		-0.46862
N 1.0  		0.9443684774873106 		0.5751300422023751  0.6734397185186023 		Uiso   ? 		N 		-0.46862
N 1.0  		-0.1167630817101209 		0.4948964569633919  0.8657702555167752 		Uiso   ? 		N 		-0.46862
N 1.0  		1.1045752896319356 		0.904897438413976  0.6697628111936372 		Uiso   ? 		N 		-0.46862
N 1.0  		0.0525743313677855 		0.8293257434488174  0.8526182408544001 		Uiso   ? 		N 		-0.46862
N 1.0  		0.3002887872619029 		0.3574933752085583  0.9282776800411814 		Uiso   ? 		N 		-0.39344
N 1.0  		0.21687606312473426 		0.4414074001374031  0.6988952307683606 		Uiso   ? 		N 		-0.39344
N 1.0  		0.47032940954766234 		0.6929041122779468  0.9220552214912404 		Uiso   ? 		N 		-0.39344
N 1.0  		0.37928231330636697 		0.7738737854549024  0.6988952307683606 		Uiso   ? 		N 		-0.39344
N 1.0  		0.6375747902477057 		1.0278241240553538  0.9151256653788064 		Uiso   ? 		N 		-0.39344
N 1.0  		0.5503196477629096 		1.108303071940328  0.6856017965934867 		Uiso   ? 		N 		-0.39344
N 1.0  		0.802591482926327 		0.35872018843851217  0.9323788459036424 		Uiso   ? 		N 		-0.39344
N 1.0  		0.7167515564800848 		0.44287957601334776  0.7017236210183336 		Uiso   ? 		N 		-0.39344
N 1.0  		0.9699595433852511 		0.6938855628619099  0.9158327629412996 		Uiso   ? 		N 		-0.39344
N 1.0  		0.8790351269028367 		0.7751005986848563  0.702006460043331 		Uiso   ? 		N 		-0.39344
N 1.0  		0.13244398365213333 		1.025615860241437  0.9101759824413533 		Uiso   ? 		N 		-0.39344
N 1.0  		1.0521316243918104 		1.1085484345863186  0.6846118600059963 		Uiso   ? 		N 		-0.39344
N 1.0  		0.3871799321419965 		0.15261556580626168  0.5446065426323262 		Uiso   ? 		N 		-0.39656
N 1.0  		0.7426504578437464 		0.0824418490529002  0.7565943918678123 		Uiso   ? 		N 		-0.39656
N 1.0  		0.5492093454241388 		0.48262832466385325  0.538525503594884 		Uiso   ? 		N 		-0.39656
N 1.0  		-0.0788033380598164 		0.4207969378741781  0.7663523382302196 		Uiso   ? 		N 		-0.39656
N 1.0  		0.7172389481226358 		0.8165668858572971  0.5543644889947336 		Uiso   ? 		N 		-0.39656
N 1.0  		0.07754578163744508 		0.7500736087937973  0.751786128442858 		Uiso   ? 		N 		-0.39656
N 1.0  		0.8858526996311227 		0.1504073019923447  0.5478591914197953 		Uiso   ? 		N 		-0.39656
N 1.0  		0.2463391539728293 		0.08342329963686329  0.7633825284677478 		Uiso   ? 		N 		-0.39656
N 1.0  		1.0509227140167428 		0.4814015114338993  0.5345657572449216 		Uiso   ? 		N 		-0.39656
N 1.0  		0.417801468774031 		0.4178525861222888  0.7653624016427291 		Uiso   ? 		N 		-0.39656
N 1.0  		0.21612138307874024 		0.815585435273334  0.5519603572822563 		Uiso   ? 		N 		-0.39656
N 1.0  		0.5784989999541796 		0.7486014329178526  0.7492405772178823 		Uiso   ? 		N 		-0.39656
N 1.0  		0.7185626655467938 		0.5238492491903033  0.5694963768320899 		Uiso   ? 		N 		-0.39638
N 1.0  		0.08787509909004415 		0.45539307095887727  0.7711606016551741 		Uiso   ? 		N 		-0.39638
N 1.0  		0.879595366658153 		0.854843458631858  0.5795371622194944 		Uiso   ? 		N 		-0.39638
N 1.0  		0.25128685906530807 		0.7885955442143489  0.7817670650925732 		Uiso   ? 		N 		-0.39638
N 1.0  		1.056792058996381 		0.19310040239473944  0.556202942657216 		Uiso   ? 		N 		-0.39638
N 1.0  		0.41327174826329943 		0.12022769653547945  0.7803528699675867 		Uiso   ? 		N 		-0.39638
N 1.0  		0.2127045780207843 		0.5218863480223771  0.5668094060946153 		Uiso   ? 		N 		-0.39638
N 1.0  		0.5852817231680412 		0.45490234566689575  0.7718676992176673 		Uiso   ? 		N 		-0.39638
N 1.0  		0.3797110756799545 		0.8516537442339779  0.5801028402694891 		Uiso   ? 		N 		-0.39638
N 1.0  		0.7567528355920907 		0.7910491706742566  0.7804942894800854 		Uiso   ? 		N 		-0.39638
N 1.0  		0.5578322650212132 		0.1926096771027579  0.5536573914322402 		Uiso   ? 		N 		-0.39638
N 1.0  		-0.0904132940942462 		0.1158111689076455  0.7871410065675222 		Uiso   ? 		N 		-0.39638
N 1.0  		1.0186346936464492 		0.7797624889586809  0.608528162281719 		Uiso   ? 		N 		-0.39414
N 1.0  		0.6610855754816028 		0.8649033271174796  0.8347993822795694 		Uiso   ? 		N 		-0.39414
N 1.0  		1.1836361122253343 		0.11360290509372854  0.6184275281566249 		Uiso   ? 		N 		-0.39414
N 1.0  		-0.17090809688681796 		0.20046128177446265  0.8458301042544646 		Uiso   ? 		N 		-0.39414
N 1.0  		0.3547122909448056 		0.4514672686230249  0.6338422550189785 		Uiso   ? 		N 		-0.39414
N 1.0  		-0.0013734677363184122 		0.5378349200117775  0.8420117774170008 		Uiso   ? 		N 		-0.39414
N 1.0  		0.5187767955367945 		0.7817253901266071  0.6083867427692203 		Uiso   ? 		N 		-0.39414
N 1.0  		0.16502842875129525 		0.8680930415153597  0.8374863530170439 		Uiso   ? 		N 		-0.39414
N 1.0  		0.6830004685941141 		0.11188536657179313  0.6219630159690913 		Uiso   ? 		N 		-0.39414
N 1.0  		0.337655421811459 		0.20316027088036118  0.8452644262044701 		Uiso   ? 		N 		-0.39414
N 1.0  		0.8501078954355403 		0.4495043674550987  0.6287511525690268 		Uiso   ? 		N 		-0.39414
N 1.0  		0.49963669164843266 		0.5356266561978604  0.8424360359544969 		Uiso   ? 		N 		-0.39414
N 1.0  		0.21977897001260643 		0.24364510746883897  0.6684900355811494 		Uiso   ? 		N 		-0.39630
N 1.0  		0.17002841593598375 		0.16709196191971737  0.8504969481669203 		Uiso   ? 		N 		-0.39630
N 1.0  		0.39293472971555593 		0.5827362842280892  0.6831976648810096 		Uiso   ? 		N 		-0.39630
N 1.0  		0.33269529973511464 		0.49710472077730883  0.8643560603917887 		Uiso   ? 		N 		-0.39630
N 1.0  		0.5529683975101722 		0.9083325154578468  0.6700456502186346 		Uiso   ? 		N 		-0.39630
N 1.0  		0.4981838179885052 		0.8327608204926883  1.858535233257344 		Uiso   ? 		N 		-0.39630
N 1.0  		0.720037776744336 		0.24290901953086663  0.6734397185186023 		Uiso   ? 		N 		-0.39630
N 1.0  		0.6711459809798793 		0.16807341250368046  1.8547169064198803 		Uiso   ? 		N 		-0.39630
N 1.0  		0.8945166209264312 		0.5795465698302091  0.6796621770685433 		Uiso   ? 		N 		-0.39630
N 1.0  		-0.16932036944326762 		0.49857689665325355  0.8632247042917994 		Uiso   ? 		N 		-0.39630
N 1.0  		1.051739773035595 		0.9075964275198745  0.6665101624061682 		Uiso   ? 		N 		-0.39630
N 1.0  		0.0005318343927465108 		0.8327608204926883  0.8520525628044056 		Uiso   ? 		N 		-0.39630
N 1.0  		0.23410232690419486 		0.18941996270487782  0.9038121043789138 		Uiso   ? 		N 		-0.42733
N 1.0  		1.1486726082622671 		0.26891746000588873  0.7017236210183336 		Uiso   ? 		N 		-0.42733
N 1.0  		0.40177916442578576 		0.5196780842084601  0.9070647531663829 		Uiso   ? 		N 		-0.42733
N 1.0  		0.31432912701435595 		0.603592109137305  0.7168555088556898 		Uiso   ? 		N 		-0.42733
N 1.0  		0.5710596364356757 		0.854843458631858  0.9049434604789031 		Uiso   ? 		N 		-0.42733
N 1.0  		0.48105091933344374 		0.9370399450387673  0.7099259527432557 		Uiso   ? 		N 		-0.42733
N 1.0  		0.7362341993645695 		0.19285503974874868  0.9063576556038896 		Uiso   ? 		N 		-0.42733
N 1.0  		0.6454213438722285 		0.2662184708999902  0.7123300844557329 		Uiso   ? 		N 		-0.42733
N 1.0  		0.9032318994008917 		0.5209048974384141  0.9159741824537984 		Uiso   ? 		N 		-0.42733
N 1.0  		0.8154883590265316 		0.6067818235351851  0.7164312503181939 		Uiso   ? 		N 		-0.42733
N 1.0  		0.06651815691192342 		0.8550888212778487  0.899145260466458 		Uiso   ? 		N 		-0.42733
N 1.0  		0.9834522230341642 		0.9397389341446659  0.710208791768253 		Uiso   ? 		N 		-0.42733
N 1.0  		0.4825233684080593 		0.31185592305427423  0.51999954745756 		Uiso   ? 		N 		-0.42592
N 1.0  		-0.1542430791096866 		0.24781627245068213  0.7490991577053835 		Uiso   ? 		N 		-0.42592
N 1.0  		0.6539528138638289 		0.6457944842477182  0.5284847182074794 		Uiso   ? 		N 		-0.42592
N 1.0  		0.01246111796370536 		0.5778290313082737  0.7349572064555179 		Uiso   ? 		N 		-0.42592
N 1.0  		0.8208630246326618 		0.9804691333791344  0.5396568596948732 		Uiso   ? 		N 		-0.42592
N 1.0  		0.17703393683691343 		0.9125036804396899  0.7391997918304777 		Uiso   ? 		N 		-0.42592
N 1.0  		0.981842404037022 		0.31136519776229266  0.5202823864825573 		Uiso   ? 		N 		-0.42592
N 1.0  		0.34545047227280723 		0.24339974482284818  0.7437252162304346 		Uiso   ? 		N 		-0.42592
N 1.0  		1.1513024968738095 		0.646039846893709  0.5265048450324982 		Uiso   ? 		N 		-0.42592
N 1.0  		0.5094427616970433 		0.5773383060162922  0.7384926942679844 		Uiso   ? 		N 		-0.42592
N 1.0  		0.3189524399674647 		0.978751594857199  0.5388083426198813 		Uiso   ? 		N 		-0.42592
N 1.0  		0.6808152660847963 		0.9120129551477084  0.7407554064679629 		Uiso   ? 		N 		-0.42592
N 1.0  		0.6467023880810935 		0.35037785847482583  0.5815170353944756 		Uiso   ? 		N 		-0.42748
N 1.0  		0.012205272622148655 		0.27897732849151047  0.7930806260924657 		Uiso   ? 		N 		-0.42748
N 1.0  		0.8194901085074004 		0.6887329472961037  0.5815170353944756 		Uiso   ? 		N 		-0.42748
N 1.0  		0.18243431335765325 		0.6156148787908529  0.7923735285299724 		Uiso   ? 		N 		-0.42748
N 1.0  		0.9789696397215883 		1.0187457061536953  0.5816584549069743 		Uiso   ? 		N 		-0.42748
N 1.0  		0.35041059434915156 		-0.05054470507409952  0.8039699285548623 		Uiso   ? 		N 		-0.42748
N 1.0  		1.1451145219527217 		0.3506232211208166  0.5839211671069527 		Uiso   ? 		N 		-0.42748
N 1.0  		0.5107488838755054 		0.28118559230542745  0.7970403724424281 		Uiso   ? 		N 		-0.42748
N 1.0  		0.31504491587398525 		0.6840710570222789  0.579678581731993 		Uiso   ? 		N 		-0.42748
N 1.0  		0.681205688883076 		0.6148787908528806  0.7950604992674469 		Uiso   ? 		N 		-0.42748
N 1.0  		0.4807042573314254 		1.0175188929237415  0.5751531573320361 		Uiso   ? 		N 		-0.42748
N 1.0  		-0.15114954628509877 		-0.05496123270193346  0.8106166456422992 		Uiso   ? 		N 		-0.42748
N 1.0  		1.1149354962609745 		0.9421925606045736  0.6238014696315738 		Uiso   ? 		N 		-0.42725
N 1.0  		-0.23459746091365904 		0.022082638139169695  0.8169805237047387 		Uiso   ? 		N 		-0.42725
N 1.0  		0.28557271875110896 		0.27578761409363045  0.6177204305941317 		Uiso   ? 		N 		-0.42725
N 1.0  		-0.07264673927615814 		0.36043772696044757  0.8278698261671352 		Uiso   ? 		N 		-0.42725
N 1.0  		0.4524259884519255 		0.611198351163019  0.6107908744816974 		Uiso   ? 		N 		-0.42725
N 1.0  		0.0982767130443516 		0.6963391893218177  0.8161320066297467 		Uiso   ? 		N 		-0.42725
N 1.0  		0.6180765322865176 		0.942928648542546  0.6204074013316061 		Uiso   ? 		N 		-0.42725
N 1.0  		0.26690573865257483 		0.027235253704975957  0.821788787129693 		Uiso   ? 		N 		-0.42725
N 1.0  		0.7840505913136014 		0.2770144273235843  0.6276197964690375 		Uiso   ? 		N 		-0.42725
N 1.0  		0.4295661459748172 		0.36190990283639224  0.822637304204685 		Uiso   ? 		N 		-0.42725
N 1.0  		0.9491863443900859 		0.6089900873491021  0.6127707476566787 		Uiso   ? 		N 		-0.42725
N 1.0  		0.5937357350799911 		0.6889783099420944  1.8139880868202671 		Uiso   ? 		N 		-0.42725
N 1.0  		0.3221128313889189 		0.4104917067425656  0.6672172599686614 		Uiso   ? 		N 		-0.42736
N 1.0  		0.2632950939239199 		0.3238786927078222  0.8787808506666517 		Uiso   ? 		N 		-0.42736
N 1.0  		0.48379827711700285 		0.7385415644322308  0.6532167282312944 		Uiso   ? 		N 		-0.42736
N 1.0  		0.4314649716269936 		0.6614976935911278  0.8821749189666194 		Uiso   ? 		N 		-0.42736
N 1.0  		0.6523996116416242 		1.0714986750417117  0.6573178940937554 		Uiso   ? 		N 		-0.42736
N 1.0  		0.5981903833070991 		-0.005888703503778585  0.8729826506542067 		Uiso   ? 		N 		-0.42736
N 1.0  		0.8223869122203847 		0.40681126705270393  0.6691971331436427 		Uiso   ? 		N 		-0.42736
N 1.0  		-0.23626930122280457 		0.3238786927078222  0.8858518262915844 		Uiso   ? 		N 		-0.42736
N 1.0  		0.985233416846413 		0.7363333006183139  0.6513782745688119 		Uiso   ? 		N 		-0.42736
N 1.0  		-0.06816516221059515 		0.6605162430071647  0.876942397004169 		Uiso   ? 		N 		-0.42736
N 1.0  		1.1495849479244438 		1.0692904112277948  0.6527924696937984 		Uiso   ? 		N 		-0.42736
N 1.0  		0.10053839971134036 		-0.005888703503778585  0.8714270360167214 		Uiso   ? 		N 		-0.42736
N 1.0  		0.40652518946280897 		0.4683972911963883  0.9182368946537768 		Uiso   ? 		N 		-0.48324
N 1.0  		0.3219032629825274 		0.5532927667091962  0.7119058259182369 		Uiso   ? 		N 		-0.48324
N 1.0  		0.5741298118166469 		0.8023358523898323  0.9072061726788816 		Uiso   ? 		N 		-0.48324
N 1.0  		0.48452200333648965 		0.8857591520266955  0.7024307185808268 		Uiso   ? 		N 		-0.48324
N 1.0  		0.7407019955383987 		0.14059279615271372  0.9111659190288439 		Uiso   ? 		N 		-0.48324
N 1.0  		0.6532167676355773 		0.21763666699381687  0.7015822015058351 		Uiso   ? 		N 		-0.48324
N 1.0  		0.9075200747478236 		0.4691333791343606  0.9226208995412352 		Uiso   ? 		N 		-0.48324
N 1.0  		0.8200130962683774 		0.5537834920011778  0.7143099576307141 		Uiso   ? 		N 		-0.48324
N 1.0  		0.07159935188015698 		0.8040533909117676  0.9033878458414178 		Uiso   ? 		N 		-0.48324
N 1.0  		0.9842836145558074 		0.8887035037785848  0.6980467136933686 		Uiso   ? 		N 		-0.48324
N 1.0  		0.2368373323539557 		0.13666699381686134  0.9096103043913588 		Uiso   ? 		N 		-0.48324
N 1.0  		1.1544570124383537 		0.21886348022377075  0.6939455478309076 		Uiso   ? 		N 		-0.48324
N 1.0  		0.4891248639280318 		0.2613112179801747  0.5262220060075009 		Uiso   ? 		N 		-0.48346
N 1.0  		-0.15257052452157344 		0.19506330356266566  0.7574429089428043 		Uiso   ? 		N 		-0.48346
N 1.0  		0.6564183880732437 		0.593777603297674  0.5366870499324015 		Uiso   ? 		N 		-0.48346
N 1.0  		0.019226960210838695 		0.5297379526940819  0.7448565723304239 		Uiso   ? 		N 		-0.48346
N 1.0  		0.8241456901859626 		0.9279615271371088  0.5453136401948195 		Uiso   ? 		N 		-0.48346
N 1.0  		0.18041521042651076 		0.8614682500736089  0.7479678016053942 		Uiso   ? 		N 		-0.48346
N 1.0  		0.9870703504867208 		0.2593483168122485  0.524524971857517 		Uiso   ? 		N 		-0.48346
N 1.0  		0.3489544256212854 		0.1926096771027579  0.7496648357553782 		Uiso   ? 		N 		-0.48346
N 1.0  		1.1549532017037527 		0.5942683285896556  0.5297574938199673 		Uiso   ? 		N 		-0.48346
N 1.0  		0.5161340676304643 		0.5265482382962018  0.7447151528179252 		Uiso   ? 		N 		-0.48346
N 1.0  		0.322872576037754 		0.9262439886151733  0.5448893816573236 		Uiso   ? 		N 		-0.48346
N 1.0  		0.6824878206729095 		0.8592599862596918  0.7490991577053835 		Uiso   ? 		N 		-0.48346
N 1.0  		0.8247509243025313 		0.6372067916380411  0.5768501914820199 		Uiso   ? 		N 		-0.48379
N 1.0  		0.19071165853367766 		0.5662969869467073  0.785585391930037 		Uiso   ? 		N 		-0.48379
N 1.0  		0.9816236323807483 		0.9679556384336049  0.5699206353695858 		Uiso   ? 		N 		-0.48379
N 1.0  		0.35823526809691497 		0.9021984493080775  0.7923735285299724 		Uiso   ? 		N 		-0.48379
N 1.0  		1.1542506254409122 		0.3030228677986064  0.5743046402570441 		Uiso   ? 		N 		-0.48379
N 1.0  		0.5165749550198722 		0.23333987633722644  0.7817670650925732 		Uiso   ? 		N 		-0.48379
N 1.0  		0.3180822219095244 		0.6310727254882718  0.5772744500195158 		Uiso   ? 		N 		-0.48379
N 1.0  		0.6889682433009928 		0.5658062616547257  0.785585391930037 		Uiso   ? 		N 		-0.48379
N 1.0  		0.4854984258136171 		0.9637844734517618  0.5711934109820737 		Uiso   ? 		N 		-0.48379
N 1.0  		-0.13944078722142805 		0.9034252625380312  0.7933634651174631 		Uiso   ? 		N 		-0.48379
N 1.0  		0.6565000338088568 		0.30155069192266176  0.5757188353820306 		Uiso   ? 		N 		-0.48379
N 1.0  		0.013772742697076776 		0.22941407400137406  0.7778073187426109 		Uiso   ? 		N 		-0.48379
N 1.0  		1.120097704019809 		0.8891942290705664  0.6213973379190968 		Uiso   ? 		N 		-0.48367
N 1.0  		-0.23169578759077789 		-0.021837275493178918  0.8364964164295533 		Uiso   ? 		N 		-0.48367
N 1.0  		0.28955859351226265 		0.2242614584355678  0.6249328257315631 		Uiso   ? 		N 		-0.48367
N 1.0  		-0.06579108661557609 		0.312101285700265  0.8386177091170331 		Uiso   ? 		N 		-0.48367
N 1.0  		0.45747431407472683 		0.5596721955049564  0.6177204305941317 		Uiso   ? 		N 		-0.48367
N 1.0  		0.10374354253492346 		0.6494749239375798  0.8311224749546043 		Uiso   ? 		N 		-0.48367
N 1.0  		0.6219397272887905 		0.8911571302384926  0.6236600501190752 		Uiso   ? 		N 		-0.48367
N 1.0  		0.2702629405195879 		-0.022573363431151242  0.8331023481295855 		Uiso   ? 		N 		-0.48367
N 1.0  		0.7879707273838908 		0.22450682108155856  0.6300239281815148 		Uiso   ? 		N 		-0.48367
N 1.0  		0.43979756967008743 		0.3148002748061635  0.834516543254572 		Uiso   ? 		N 		-0.48367
N 1.0  		0.95405504918599 		0.5579546569830209  0.6213973379190968 		Uiso   ? 		N 		-0.48367
N 1.0  		0.6035597736762981 		0.6453037589557366  0.8314053139796016 		Uiso   ? 		N 		-0.48367
N 1.0  		0.32515013742445786 		0.3574933752085583  0.6724497819311117 		Uiso   ? 		N 		-0.48229
N 1.0  		0.2691035698225907 		0.2725978996957503  0.8741140067541959 		Uiso   ? 		N 		-0.48229
N 1.0  		0.4903997726369753 		0.6879968593581314  0.6598634453187313 		Uiso   ? 		N 		-0.48229
N 1.0  		0.43675865676755665 		0.6104622632250467  0.8734069091917027 		Uiso   ? 		N 		-0.48229
N 1.0  		0.6569988851971822 		1.021199332613603  0.6665101624061682 		Uiso   ? 		N 		-0.48229
N 1.0  		0.6009013170342756 		-0.05741485916184121  0.863790382341794 		Uiso   ? 		N 		-0.48229
N 1.0  		0.8266662899444689 		0.3533222102267151  0.6716012648561197 		Uiso   ? 		N 		-0.48229
N 1.0  		-0.22990436759774588 		0.2745608008636765  0.8762352994416758 		Uiso   ? 		N 		-0.48229
N 1.0  		0.9913770626762941 		0.6852978702522329  0.6578835721437502 		Uiso   ? 		N 		-0.48229
N 1.0  		-0.06515192789764052 		0.6087447247031113  0.8700128408917349 		Uiso   ? 		N 		-0.48229
N 1.0  		1.154372639929747 		1.02021788202964  0.6635403526436964 		Uiso   ? 		N 		-0.48229
N 1.0  		0.10428771257758027 		-0.05618804593188734  0.8622347677043088 		Uiso   ? 		N 		-0.48229
N 1.0  		0.3494704176193505 		0.4652075767985082  0.9175297970912836 		Uiso   ? 		N 		-0.26942
N 1.0  		0.2639327917588865 		0.549121601727353  0.710208791768253 		Uiso   ? 		N 		-0.26942
N 1.0  		0.5186522815929439 		0.7989007753459614  0.9111659190288439 		Uiso   ? 		N 		-0.26942
N 1.0  		0.4281945124234685 		0.8823240749828247  0.7058247868807946 		Uiso   ? 		N 		-0.26942
N 1.0  		0.6838180468989897 		0.1351948179409167  0.9073475921913803 		Uiso   ? 		N 		-0.26942
N 1.0  		0.597011956481437 		0.21444695259593682  0.6980467136933686 		Uiso   ? 		N 		-0.26942
N 1.0  		0.8506120543858302 		0.4649622141525175  0.9197925092912619 		Uiso   ? 		N 		-0.26942
N 1.0  		0.7633504354241458 		0.5501030523113162  0.7114815673807409 		Uiso   ? 		N 		-0.26942
N 1.0  		1.0160765009166366 		0.8018451270978506  0.9093274653663613 		Uiso   ? 		N 		-0.26942
N 1.0  		0.9290755155724502 		0.8845323387967416  0.7052591088308001 		Uiso   ? 		N 		-0.26942
N 1.0  		0.18176071075232741 		0.13445873000294437  0.9036706848664151 		Uiso   ? 		N 		-0.26942
N 1.0  		1.0974591816629118 		0.21493767788791837  0.6930970307559156 		Uiso   ? 		N 		-0.26942
N 1.0  		0.4352421705697799 		0.26106585533418397  0.5359799523699083 		Uiso   ? 		N 		-0.26893
N 1.0  		-0.20759020505518522 		0.19211895181077634  0.75263464551785 		Uiso   ? 		N 		-0.26893
N 1.0  		0.6015783283665292 		0.5903425262538032  0.5315959474824499 		Uiso   ? 		N 		-0.26893
N 1.0  		-0.03842593632728758 		0.5223770733143587  0.7440080552554319 		Uiso   ? 		N 		-0.26893
N 1.0  		0.7669923103062076 		0.923299636863284  0.538525503594884 		Uiso   ? 		N 		-0.26893
N 1.0  		0.12310628144244268 		0.8560702718618118  0.7433009576929387 		Uiso   ? 		N 		-0.26893
N 1.0  		0.9328196178518262 		0.2583668662282854  0.5327273035824391 		Uiso   ? 		N 		-0.26893
N 1.0  		0.29250425494938337 		0.18892923741289627  0.7495234162428795 		Uiso   ? 		N 		-0.26893
N 1.0  		1.0986738542359 		0.588379625085877  0.5266462645449969 		Uiso   ? 		N 		-0.26893
N 1.0  		0.4607463478202099 		0.5228677986063401  0.7500890942928742 		Uiso   ? 		N 		-0.26893
N 1.0  		0.26642240536585193 		0.9225635489253117  0.5427680889698437 		Uiso   ? 		N 		-0.26893
N 1.0  		0.6276806303116271 		0.8563156345078027  0.7437252162304346 		Uiso   ? 		N 		-0.26893
N 1.0  		0.7689141524250336 		0.6347531651781334  0.5720419280570656 		Uiso   ? 		N 		-0.26922
N 1.0  		0.13395918727599745 		0.5628619099028365  0.7802114504550881 		Uiso   ? 		N 		-0.26922
N 1.0  		0.9252873438448792 		0.9628030228677986  0.5752945768445347 		Uiso   ? 		N 		-0.26922
N 1.0  		0.3009022673902626 		0.8980272843262342  0.7902522358424926 		Uiso   ? 		N 		-0.26922
N 1.0  		1.0996230559065272 		0.2995877907547355  0.5661023085321221 		Uiso   ? 		N 		-0.26922
N 1.0  		0.4589220584817458 		0.22597899695750323  0.7901108163299939 		Uiso   ? 		N 		-0.26922
N 1.0  		0.2618533390327998 		0.6291098243203456  0.5730318646445561 		Uiso   ? 		N 		-0.26922
N 1.0  		0.6331884124915115 		0.5626165472568457  0.7804942894800854 		Uiso   ? 		N 		-0.26922
N 1.0  		0.42868021586507254 		0.9593679458239279  0.5738803817195481 		Uiso   ? 		N 		-0.26922
N 1.0  		-0.19757560517222988 		0.8968004710962804  0.7913835919424819 		Uiso   ? 		N 		-0.26922
N 1.0  		0.6020849544468014 		0.2981156148787909  0.5658194695071248 		Uiso   ? 		N 		-0.26922
N 1.0  		-0.0419260753218037 		0.2242614584355678  0.7881309431550129 		Uiso   ? 		N 		-0.26922
N 1.0  		1.0629443241400538 		0.8845323387967416  0.6202659818191075 		Uiso   ? 		N 		-0.27521
N 1.0  		0.7123387858553468 		-0.02748061635096673  0.8285769237296285 		Uiso   ? 		N 		-0.27521
N 1.0  		0.2335991418758841 		0.22156246932966928  0.622952952556582 		Uiso   ? 		N 		-0.27521
N 1.0  		-0.12312408732222849 		0.30793012071842185  0.8398904847295211 		Uiso   ? 		N 		-0.27521
N 1.0  		0.40322358143983233 		0.5586907449209934  0.6240843086565713 		Uiso   ? 		N 		-0.27521
N 1.0  		0.0480775938614752 		0.6448130336637551  0.8305567969046097 		Uiso   ? 		N 		-0.27521
N 1.0  		0.5648761578224841 		0.8862498773186771  0.6209730793816007 		Uiso   ? 		N 		-0.27521
N 1.0  		0.21460578946898748 		-0.025517715183040534  0.830415377392111 		Uiso   ? 		N 		-0.27521
N 1.0  		0.73197840640208 		0.2213171066836785  0.6312967037940027 		Uiso   ? 		N 		-0.27521
N 1.0  		0.3829464903761106 		0.30989302188634804  0.8383348700920358 		Uiso   ? 		N 		-0.27521
N 1.0  		0.9009084343810232 		0.5591814702129748  0.6294582501315201 		Uiso   ? 		N 		-0.27521
N 1.0  		0.5467415637277535 		0.6408872313279027  0.8325366700795909 		Uiso   ? 		N 		-0.27521
N 1.0  		0.27022026730429477 		0.3543036608106782  0.6625504160562057 		Uiso   ? 		N 		-0.26848
N 1.0  		0.21298856908189906 		0.2691628226518795  0.8701542604042335 		Uiso   ? 		N 		-0.26848
N 1.0  		0.4324533731359187 		0.6825988811463344  0.6615604794687152 		Uiso   ? 		N 		-0.26848
N 1.0  		0.3796052768878017 		0.6058003729512219  0.8755282018791825 		Uiso   ? 		N 		-0.26848
N 1.0  		0.6001390082803574 		1.014574541171852  0.6595806062937339 		Uiso   ? 		N 		-0.26848
N 1.0  		0.5449659371204812 		-0.0613406614976936  0.8700128408917349 		Uiso   ? 		N 		-0.26848
N 1.0  		0.7702489886179991 		0.35013249582883504  0.6683486160686507 		Uiso   ? 		N 		-0.26848
N 1.0  		0.7129538728506982 		0.2703896358818334  0.8762352994416758 		Uiso   ? 		N 		-0.26848
N 1.0  		0.9333408527617888 		0.6801452546864265  0.6574593136062542 		Uiso   ? 		N 		-0.26848
N 1.0  		-0.12142247774264514 		0.604573559721268  0.8738311677291987 		Uiso   ? 		N 		-0.26848
N 1.0  		1.0980932924618945 		1.0143291785258615  0.6580249916562487 		Uiso   ? 		N 		-0.26848
N 1.0  		0.04816391421404073 		-0.0613406614976936  0.867891548204255 		Uiso   ? 		N 		-0.26848
N 1.0  		0.35357897213938505 		0.4139267837864364  0.9262978068662001 		Uiso   ? 		N 		-0.46125
N 1.0  		0.2679756075880567 		0.4968593581313181  0.7069561429807839 		Uiso   ? 		N 		-0.46125
N 1.0  		0.5223599274909037 		0.7463931691039356  0.9142771483038143 		Uiso   ? 		N 		-0.46125
N 1.0  		0.4314771779767693 		0.829816468740799  0.7004508454058458 		Uiso   ? 		N 		-0.46125
N 1.0  		0.6886743347110282 		1.0832760820492688  0.9118730165913372 		Uiso   ? 		N 		-0.46125
N 1.0  		0.6012431907603525 		0.16341152222985575  0.6915414161184303 		Uiso   ? 		N 		-0.46125
N 1.0  		0.8528651384229156 		0.4129453332024733  0.9250250312537124 		Uiso   ? 		N 		-0.46125
N 1.0  		0.766845591149776 		0.49759544606929046  0.7078046600557758 		Uiso   ? 		N 		-0.46125
N 1.0  		1.0218849768153075 		0.7505643340857788  0.9128629531788278 		Uiso   ? 		N 		-0.46125
N 1.0  		0.9327831614704101 		0.832024732554716  0.7014407819933364 		Uiso   ? 		N 		-0.46125
N 1.0  		0.18423793970046087 		1.0803317302973796  0.9079132702413748 		Uiso   ? 		N 		-0.46125
N 1.0  		1.1024176968722645 		0.16365688487584654  0.6861674746434815 		Uiso   ? 		N 		-0.46125
N 1.0  		0.4409279667095699 		0.20953969967612132  0.5422024109198491 		Uiso   ? 		N 		-0.46108
N 1.0  		-0.20410384695240283 		0.13789380704681523  0.7558872943053191 		Uiso   ? 		N 		-0.46108
N 1.0  		0.6027360921965347 		0.5378349200117775  0.5390911816448786 		Uiso   ? 		N 		-0.46108
N 1.0  		-0.030687453631955214 		0.47453135734615765  0.7547559382053298 		Uiso   ? 		N 		-0.46108
N 1.0  		0.7705203353772702 		0.8712827559132399  0.5489905475197846 		Uiso   ? 		N 		-0.46108
N 1.0  		0.12836709723757367 		0.8045441162037492  0.747684962580397 		Uiso   ? 		N 		-0.46108
N 1.0  		0.9353333355064097 		0.2038963588183335  0.5361213718824068 		Uiso   ? 		N 		-0.46108
N 1.0  		0.29740582909071955 		0.13838453233879675  0.7594227821177855 		Uiso   ? 		N 		-0.46108
N 1.0  		1.1037879185495658 		0.5378349200117775  0.5311716889449538 		Uiso   ? 		N 		-0.46108
N 1.0  		0.46667750347776166 		0.47183236824025915  0.7551801967428258 		Uiso   ? 		N 		-0.46108
N 1.0  		0.2693129599199259 		0.8705466679752675  0.548000610932294 		Uiso   ? 		N 		-0.46108
N 1.0  		0.6309632958649279 		0.8038080282657768  0.7489577381928849 		Uiso   ? 		N 		-0.46108
N 1.0  		0.7720982099420378 		0.580773383060163  0.5713348304945723 		Uiso   ? 		N 		-0.46252
N 1.0  		0.1394324932434579 		0.5113357542447738  0.7768173821551203 		Uiso   ? 		N 		-0.46252
N 1.0  		0.9306708393988911 		0.9115222298557268  0.5738803817195481 		Uiso   ? 		N 		-0.46252
N 1.0  		0.30455297222020594 		0.8462557660221808  0.7841711968050504 		Uiso   ? 		N 		-0.46252
N 1.0  		1.1055542115640788 		0.24855236038865441  0.5627082402321543 		Uiso   ? 		N 		-0.46252
N 1.0  		0.4656221620380148 		0.17690646775934832  0.7787972553301014 		Uiso   ? 		N 		-0.46252
N 1.0  		0.26596189355283434 		0.5778290313082737  0.5687892792695965 		Uiso   ? 		N 		-0.46252
N 1.0  		0.6377219473562052 		0.5113357542447738  0.774837508980139 		Uiso   ? 		N 		-0.46252
N 1.0  		0.43295959358915653 		0.9058788889979391  0.5735975426945509 		Uiso   ? 		N 		-0.46252
N 1.0  		-0.19060607037561483 		0.8469918539601532  0.7828984211925624 		Uiso   ? 		N 		-0.46252
N 1.0  		0.608285541344699 		0.2463440965747375  0.5620011426696611 		Uiso   ? 		N 		-0.46252
N 1.0  		-0.04046601090602006 		0.1715084895475513  0.7812013870425786 		Uiso   ? 		N 		-0.46252
N 1.0  		1.0682051399351848 		0.833006183138679  0.6170133330316384 		Uiso   ? 		N 		-0.46395
N 1.0  		-0.2862609135022372 		-0.07827068407105703  0.8400319042420198 		Uiso   ? 		N 		-0.46395
N 1.0  		0.2369716178426335 		0.16880950044165277  0.6245085671940672 		Uiso   ? 		N 		-0.46395
N 1.0  		-0.11877017328443212 		0.2571400529983316  0.8490827530419337 		Uiso   ? 		N 		-0.46395
N 1.0  		0.40744601809589986 		0.5059377760329767  0.6295996696440188 		Uiso   ? 		N 		-0.46395
N 1.0  		0.05136025941477601 		0.5923054274217294  0.8379106115545398 		Uiso   ? 		N 		-0.46395
N 1.0  		0.5685268626524274 		0.8344783590146236  0.6204074013316061 		Uiso   ? 		N 		-0.46395
N 1.0  		0.2167449913700398 		-0.07606242025714006  0.8415875188795049 		Uiso   ? 		N 		-0.46395
N 1.0  		0.735563372541159 		0.168564137795662  0.6266298598815471 		Uiso   ? 		N 		-0.46395
N 1.0  		0.3909784760343733 		0.2600844047502209  0.844840167666974 		Uiso   ? 		N 		-0.46395
N 1.0  		0.9037901913122492 		0.5054470507409953  0.632003801356496 		Uiso   ? 		N 		-0.46395
N 1.0  		0.5522565366634941 		0.591569339483757  0.8413046798545076 		Uiso   ? 		N 		-0.46395
N 1.0  		0.2728895340631912 		0.30056924133869867  0.6669344209436642 		Uiso   ? 		N 		-0.46196
N 1.0  		0.21950025418842284 		0.21886348022377075  0.8622347677043088 		Uiso   ? 		N 		-0.46196
N 1.0  		0.4409520061071205 		0.6349985278241241  0.6708941672936265 		Uiso   ? 		N 		-0.46196
N 1.0  		0.38468647185603533 		0.5547649425851409  0.8681743872292524 		Uiso   ? 		N 		-0.46196
N 1.0  		0.605498432111785 		0.9645205613897341  0.6677829380186562 		Uiso   ? 		N 		-0.46196
N 1.0  		0.5482778526581965 		0.887476690548631  1.8619293015573117 		Uiso   ? 		N 		-0.46196
N 1.0  		0.7749292749641579 		0.2978702522328001  0.6708941672936265 		Uiso   ? 		N 		-0.46196
N 1.0  		0.7210844665452575 		0.22205319462165082  0.8654874164917779 		Uiso   ? 		N 		-0.46196
N 1.0  		0.9408011065939273 		0.6313180881342625  0.664530289231187 		Uiso   ? 		N 		-0.46196
N 1.0  		-0.11713430239571321 		0.5528020414172147  0.8684572262542497 		Uiso   ? 		N 		-0.46196
N 1.0  		1.10320735677556 		0.9637844734517618  0.6633989331311977 		Uiso   ? 		N 		-0.46196
N 1.0  		0.052816509476597495 		0.888458141132594  0.8586992798918424 		Uiso   ? 		N 		-0.46196
N 1.0  		0.29649133095049446 		0.41024634409657473  0.9241765141787204 		Uiso   ? 		N 		-0.46084
N 1.0  		0.21100184853519904 		0.4917067425655119  0.7059662063932933 		Uiso   ? 		N 		-0.46084
N 1.0  		0.46670277644030334 		0.7434488173520464  0.9166812800162916 		Uiso   ? 		N 		-0.46084
N 1.0  		0.3763348176842767 		0.826626754342919  0.7063904649307893 		Uiso   ? 		N 		-0.46084
N 1.0  		0.6322811051071426 		1.078859554421435  0.9100345629288547 		Uiso   ? 		N 		-0.46084
N 1.0  		0.5450383796062122 		0.16022180783197568  0.68843018684346 		Uiso   ? 		N 		-0.46084
N 1.0  		0.7975431573035257 		0.41024634409657473  0.9271463239411921 		Uiso   ? 		N 		-0.46084
N 1.0  		0.7107634597545166 		0.4946510943174012  0.7055419478557974 		Uiso   ? 		N 		-0.46084
N 1.0  		0.9653033287616768 		0.744920993227991  0.9148428263538091 		Uiso   ? 		N 		-0.46084
N 1.0  		0.8765783503162697 		0.8288350181568359  0.7046934307808054 		Uiso   ? 		N 		-0.46084
N 1.0  		0.12870346840874147 		1.0776327411914812  0.9021150702289299 		Uiso   ? 		N 		-0.46084
N 1.0  		1.0446268464755208 		0.1589949946020218  0.6872988307434708 		Uiso   ? 		N 		-0.46084
N 1.0  		0.38447779603766785 		0.2058592599862597  0.5429095084823423 		Uiso   ? 		N 		-0.46020
N 1.0  		0.7393677922904457 		0.1349494552949259  0.7512204503928634 		Uiso   ? 		N 		-0.46020
N 1.0  		0.5477733527309394 		0.5341544803219158  0.5320202060199458 		Uiso   ? 		N 		-0.46020
N 1.0  		-0.08681125199549475 		0.4693787417803514  0.7582914260177963 		Uiso   ? 		N 		-0.46020
N 1.0  		0.713923413223903 		0.8685837668073413  0.5450308011698223 		Uiso   ? 		N 		-0.46020
N 1.0  		0.07215348846058539 		0.7996368632839337  0.7421696015929494 		Uiso   ? 		N 		-0.46020
N 1.0  		0.8810826028715153 		0.20291490823437042  0.5446065426323262 		Uiso   ? 		N 		-0.46020
N 1.0  		0.24027652093354884 		0.13249582883501818  0.7548973577178285 		Uiso   ? 		N 		-0.46020
N 1.0  		1.046781290151276 		0.5321915791539896  0.5265048450324982 		Uiso   ? 		N 		-0.46020
N 1.0  		0.4103740842873247 		0.4671704779664344  0.7614026552927667 		Uiso   ? 		N 		-0.46020
N 1.0  		0.21401505052312012 		0.8666208656394151  0.5417781523823532 		Uiso   ? 		N 		-0.46020
N 1.0  		0.5743904454341451 		0.7998822259299244  0.7441494747679306 		Uiso   ? 		N 		-0.46020
N 1.0  		0.7165637386503182 		0.5780743939542644  0.5690721182945938 		Uiso   ? 		N 		-0.46040
N 1.0  		0.08294945322612371 		0.5071645892629307  0.7724333772676618 		Uiso   ? 		N 		-0.46040
N 1.0  		0.8738109624820665 		0.904897438413976  0.5765673524570226 		Uiso   ? 		N 		-0.46040
N 1.0  		0.2457566120298312 		0.8408577878103838  0.7845954553425464 		Uiso   ? 		N 		-0.46040
N 1.0  		1.0483022236480273 		0.24241829423888508  0.5587484938821919 		Uiso   ? 		N 		-0.46040
N 1.0  		0.4071850435014347 		0.17052703896358817  0.7823327431425678 		Uiso   ? 		N 		-0.46040
N 1.0  		1.2096460229680124 		0.5748846795563843  0.5661023085321221 		Uiso   ? 		N 		-0.46040
N 1.0  		0.5816398159609457 		0.5083914024928845  0.7701706650676834 		Uiso   ? 		N 		-0.46040
N 1.0  		0.3775478020563178 		0.9034252625380312  0.5747288987945401 		Uiso   ? 		N 		-0.46040
N 1.0  		0.7527100197629206 		0.8433114142702915  0.7814842260675758 		Uiso   ? 		N 		-0.46040
N 1.0  		0.5561268410876677 		0.24487192069879282  0.5504047426447711 		Uiso   ? 		N 		-0.46040
N 1.0  		-0.09612316195662045 		0.168564137795662  0.7858682309550343 		Uiso   ? 		N 		-0.46040
N 1.0  		1.0115336814681055 		0.827608204926882  0.6172961720566357 		Uiso   ? 		N 		-0.46044
N 1.0  		0.6573903465675086 		-0.08170576111492787  0.8339508652045775 		Uiso   ? 		N 		-0.46044
N 1.0  		1.180712688325828 		0.16512906075179118  0.6266298598815471 		Uiso   ? 		N 		-0.46044
N 1.0  		-0.17452593237132907 		0.25272352537049764  0.8475271384044486 		Uiso   ? 		N 		-0.46044
N 1.0  		0.3518546057361639 		0.5039748748650505  0.6328523184314878 		Uiso   ? 		N 		-0.46044
N 1.0  		-0.00532647315203999 		0.5898518009618215  0.8374863530170439 		Uiso   ? 		N 		-0.46044
N 1.0  		0.5129595220152757 		0.8312886446167436  0.6164476549816438 		Uiso   ? 		N 		-0.46044
N 1.0  		0.1605073108704673 		-0.07974285994700167  0.8373449335045453 		Uiso   ? 		N 		-0.46044
N 1.0  		0.6787122932471822 		0.16365688487584654  0.6318623818439973 		Uiso   ? 		N 		-0.46044
N 1.0  		0.3335227955688401 		0.2556678771223869  0.8476685579169472 		Uiso   ? 		N 		-0.46044
N 1.0  		0.8473159489177629 		0.5029934242810874  0.6335594159939812 		Uiso   ? 		N 		-0.46044
N 1.0  		0.4961415359228023 		0.5881342624398862  0.8449815871794727 		Uiso   ? 		N 		-0.46044
N 1.0  		0.21822909518337413 		0.29664343900284623  0.6592977672687367 		Uiso   ? 		N 		-0.45898
N 1.0  		0.16387597248325464 		0.216409853763863  0.8577093433043518 		Uiso   ? 		N 		-0.45898
N 1.0  		0.3829486655380474 		0.6303366375502993  0.6758438502310795 		Uiso   ? 		N 		-0.45898
N 1.0  		0.32667433366411425 		0.5483855137893807  0.8712856165042228 		Uiso   ? 		N 		-0.45898
N 1.0  		0.5482464441957334 		0.9583864952399648  0.6592977672687367 		Uiso   ? 		N 		-0.45898
N 1.0  		0.4929470739159586 		0.883060162920797  1.8660304674197727 		Uiso   ? 		N 		-0.45898
N 1.0  		0.7189040846369148 		0.2941898125429385  0.6659444843561735 		Uiso   ? 		N 		-0.45898
N 1.0  		0.6646671652187877 		0.21886348022377075  1.8605151064323253 		Uiso   ? 		N 		-0.45898
N 1.0  		0.8851439555433269 		0.6283737363823731  0.6707527477811279 		Uiso   ? 		N 		-0.45898
N 1.0  		-0.17397658406684213 		0.5496123270193347  0.8702956799167322 		Uiso   ? 		N 		-0.45898
N 1.0  		1.0451054081701905 		0.9576504073019925  0.6607119623937232 		Uiso   ? 		N 		-0.45898
N 1.0  		-0.0047049096798000845 		0.883060162920797  0.8613862506293168 		Uiso   ? 		N 		-0.45898
N 1.0  		0.29329847581064233 		0.4625085876926097  0.9151256653788064 		Uiso   ? 		N 		-0.42382
N 1.0  		0.20570816339463593 		0.542742172931593  0.7113401478682423 		Uiso   ? 		N 		-0.42382
N 1.0  		0.4636983397501965 		0.7969378741780353  0.9199339288037607 		Uiso   ? 		N 		-0.42382
N 1.0  		0.374440975300986 		0.8776621847089999  0.7169969283681886 		Uiso   ? 		N 		-0.42382
N 1.0  		0.6260717205863969 		1.128913534203553  0.9050848799914017 		Uiso   ? 		N 		-0.42382
N 1.0  		0.5403821649826377 		0.21125723819805675  0.696208260030886 		Uiso   ? 		N 		-0.42382
N 1.0  		0.7937697727147015 		0.46177249975463736  0.9210652849037498 		Uiso   ? 		N 		-0.42382
N 1.0  		0.7086747224445924 		0.549121601727353  0.7078046600557758 		Uiso   ? 		N 		-0.42382
N 1.0  		0.9588573823460171 		0.7962017862400629  0.9079132702413748 		Uiso   ? 		N 		-0.42382
N 1.0  		0.8737359392073645 		0.8783982726469723  0.7148756356807087 		Uiso   ? 		N 		-0.42382
N 1.0  		0.12488555973576632 		0.13077829031308275  0.8995695190039541 		Uiso   ? 		N 		-0.42382
N 1.0  		1.039635461920736 		0.20978506232211208  0.6935212892934115 		Uiso   ? 		N 		-0.42382
N 1.0  		0.8777758655956303 		0.25664932770635  0.5406467962823639 		Uiso   ? 		N 		-0.42128
N 1.0  		0.23464766586177538 		0.18328589655510846  0.7468364455054051 		Uiso   ? 		N 		-0.42128
N 1.0  		1.0424033043908953 		0.5842084601040337  0.5232521962450292 		Uiso   ? 		N 		-0.42128
N 1.0  		0.4049336476652966 		0.5191873589164786  0.7574429089428043 		Uiso   ? 		N 		-0.42128
N 1.0  		1.2105227175028412 		0.917901658651487  0.5368284694449001 		Uiso   ? 		N 		-0.42128
N 1.0  		0.5714758191574869 		0.8531259201099225  0.7414625040304562 		Uiso   ? 		N 		-0.42128
N 1.0  		0.3807372807942758 		0.25787614093630384  0.5448893816573236 		Uiso   ? 		N 		-0.42128
N 1.0  		0.7360610550145607 		0.1886838747669055  0.7455636698929172 		Uiso   ? 		N 		-0.42128
N 1.0  		0.5461906085562749 		0.5866620865639416  0.5243835523450184 		Uiso   ? 		N 		-0.42128
N 1.0  		-0.09351135555176382 		0.5184512709785063  0.7499476747803755 		Uiso   ? 		N 		-0.42128
N 1.0  		0.7098805973947326 		0.9208460104033763  0.5383840840823854 		Uiso   ? 		N 		-0.42128
N 1.0  		0.06795512352710215 		0.8511630189419963  0.7334015918180327 		Uiso   ? 		N 		-0.42128
N 1.0  		0.7103302824069884 		0.6293551869663363  0.5752945768445347 		Uiso   ? 		N 		-0.42607
N 1.0  		0.07705116691400418 		0.5586907449209934  0.7775244797176135 		Uiso   ? 		N 		-0.42607
N 1.0  		0.8690978067904753 		0.9566689567180293  0.5823655524694675 		Uiso   ? 		N 		-0.42607
N 1.0  		0.2441497961325823 		0.8945922072823634  0.7902522358424926 		Uiso   ? 		N 		-0.42607
N 1.0  		1.0425594864402208 		0.29468053783492004  1.5628270326226532 		Uiso   ? 		N 		-0.42607
N 1.0  		0.4021936589466499 		0.2213171066836785  0.7919492699924764 		Uiso   ? 		N 		-0.42607
N 1.0  		1.205414788689097 		0.6259201099224655  0.5741632207445454 		Uiso   ? 		N 		-0.42607
N 1.0  		0.575397562094768 		0.5579546569830209  0.7796457724050934 		Uiso   ? 		N 		-0.42607
N 1.0  		0.37189487526196013 		0.9554421434880754  0.581375615881977 		Uiso   ? 		N 		-0.42607
N 1.0  		0.7463210144152777 		0.893856119344391  0.7891208797425033 		Uiso   ? 		N 		-0.42607
N 1.0  		0.545413495979722 		0.29271763666699385  0.5597384304696825 		Uiso   ? 		N 		-0.42607
N 1.0  		-0.09655364485618864 		0.22082638139169694  0.7943534017049536 		Uiso   ? 		N 		-0.42607
N 1.0  		0.50839311780515 		0.882078712336834  0.6178618501066303 		Uiso   ? 		N 		-0.42925
N 1.0  		0.15941528573132624 		-0.02625380312101286  0.8308396359296071 		Uiso   ? 		N 		-0.42925
N 1.0  		0.6746125363499955 		0.21665521640985377  0.6297410891565175 		Uiso   ? 		N 		-0.42925
N 1.0  		0.3264963197042086 		0.30621258219648645  0.8422946164419983 		Uiso   ? 		N 		-0.42925
N 1.0  		0.8454068324347359 		0.5569732063990579  0.6328523184314878 		Uiso   ? 		N 		-0.42925
N 1.0  		0.49258943912915565 		0.6413779566198842  0.8391833871670278 		Uiso   ? 		N 		-0.42925
N 1.0  		1.0076464147432482 		0.8806065364608893  0.6141849427816652 		Uiso   ? 		N 		-0.42925
N 1.0  		0.6576959422212255 		-0.02797134164294828  0.8236272407921755 		Uiso   ? 		N 		-0.42925
N 1.0  		1.1773402123590784 		0.21788202963980766  0.6198417232816115 		Uiso   ? 		N 		-0.42925
N 1.0  		-0.17841319909618625 		0.3057218569045049  0.8431431335169901 		Uiso   ? 		N 		-0.42925
N 1.0  		0.3479673390113067 		0.5569732063990579  0.6295996696440188 		Uiso   ? 		N 		-0.42925
N 1.0  		-0.008854498223102414 		0.6418686819118659  0.8281526651921326 		Uiso   ? 		N 		-0.42925
N 1.0  		0.21558390014706194 		0.34915104524487195  0.6537824062812891 		Uiso   ? 		N 		-0.42253
N 1.0  		0.1566851498914622 		0.2645009323780548  0.8670430311292632 		Uiso   ? 		N 		-0.42253
N 1.0  		0.3766166012584209 		0.6801452546864265  0.6649545477686829 		Uiso   ? 		N 		-0.42253
N 1.0  		0.3230324264570188 		0.6018745706153695  0.8753867823666839 		Uiso   ? 		N 		-0.42253
N 1.0  		0.5442277000891473 		1.0094219256060457  0.6505297574938199 		Uiso   ? 		N 		-0.42253
N 1.0  		0.48933285779246516 		-0.06551182647953677  0.8741140067541959 		Uiso   ? 		N 		-0.42253
N 1.0  		0.7166597982226774 		0.34792423201491807  0.6587320892187422 		Uiso   ? 		N 		-0.42253
N 1.0  		0.659274872041928 		0.2684267347139072  0.867891548204255 		Uiso   ? 		N 		-0.42253
N 1.0  		0.8764328323997956 		0.6759740897045834  0.6625504160562057 		Uiso   ? 		N 		-0.42253
N 1.0  		-0.1775046091379046 		0.6016292079693788  0.8756696213916811 		Uiso   ? 		N 		-0.42253
N 1.0  		1.0416343241671444 		1.0089312003140642  0.6515196940813106 		Uiso   ? 		N 		-0.42253
N 1.0  		-0.00895659632028209 		-0.06551182647953677  0.8677501286917564 		Uiso   ? 		N 		-0.42253
N 1.0  		0.17838823478557797 		0.18721169889096087  0.9019736507164313 		Uiso   ? 		N 		-0.42710
N 1.0  		1.0931052676251154 		0.26572774560800866  0.700733684430843 		Uiso   ? 		N 		-0.42710
N 1.0  		0.34554148392621326 		0.5159976445185985  0.9070647531663829 		Uiso   ? 		N 		-0.42710
N 1.0  		0.25830393668711293 		0.5999116694474433  0.7136028600682208 		Uiso   ? 		N 		-0.42710
N 1.0  		0.5144298449368764 		0.8516537442339779  0.9093274653663613 		Uiso   ? 		N 		-0.42710
N 1.0  		0.4250914676970651 		0.9343409559328688  0.7126129234807301 		Uiso   ? 		N 		-0.42710
N 1.0  		0.6791947016208474 		0.18672097359897932  0.9021150702289299 		Uiso   ? 		N 		-0.42710
N 1.0  		0.5913831014096635 		0.2652370203160271  0.7049762698058027 		Uiso   ? 		N 		-0.42710
N 1.0  		0.8475090096594269 		0.5169790951025617  0.9135700507413211 		Uiso   ? 		N 		-0.42710
N 1.0  		0.7608038484241302 		0.6040828344292866  0.7130371820182261 		Uiso   ? 		N 		-0.42710
N 1.0  		1.009980998531924 		0.8504269310040241  0.8990038409539595 		Uiso   ? 		N 		-0.42710
N 1.0  		0.927091862775711 		0.9358131318088135  0.7157241527557007 		Uiso   ? 		N 		-0.42710
N 1.0  		0.4268990867028911 		0.30940229659436647  0.5279190401574848 		Uiso   ? 		N 		-0.42486
N 1.0  		-0.20941830874761147 		0.24413583276082051  0.7418867625679522 		Uiso   ? 		N 		-0.42486
N 1.0  		0.5989900743982335 		0.6421140445578566  0.5235350352700264 		Uiso   ? 		N 		-0.42486
N 1.0  		-0.0448806803657949 		0.5719403278044951  0.7348157869430192 		Uiso   ? 		N 		-0.42486
N 1.0  		0.7641105533749817 		0.9770340563352636  0.5400811182323693 		Uiso   ? 		N 		-0.42486
N 1.0  		0.12086199502820533 		0.9098046913337915  0.7366542406055018 		Uiso   ? 		N 		-0.42486
N 1.0  		0.9260385015049565 		0.30940229659436647  0.5279190401574848 		Uiso   ? 		N 		-0.42486
N 1.0  		0.2886410599471105 		0.24070075571694965  0.7418867625679522 		Uiso   ? 		N 		-0.42486
N 1.0  		1.094786587511043 		0.6413779566198842  0.5219794206325412 		Uiso   ? 		N 		-0.42486
N 1.0  		0.45402217254135663 		0.5731671410344489  0.7434423772054373 		Uiso   ? 		N 		-0.42486
N 1.0  		0.2628615109493574 		0.9740897045833744  0.5334344011449323 		Uiso   ? 		N 		-0.42486
N 1.0  		0.6236290168596091 		0.9068603395819022  0.7346743674305206 		Uiso   ? 		N 		-0.42486
N 1.0  		0.5905128510266896 		0.3442437923250565  0.5757188353820306 		Uiso   ? 		N 		-0.42755
N 1.0  		-0.04476848643070902 		0.27382471292570426  0.8015657968423852 		Uiso   ? 		N 		-0.42755
N 1.0  		0.7621899771461802 		0.685052507606242  0.581375615881977 		Uiso   ? 		N 		-0.42755
N 1.0  		0.12743870454662576 		0.6114437138090097  0.7898279773049967 		Uiso   ? 		N 		-0.42755
N 1.0  		0.9214153512197585 		1.0128570026499166  0.585476781744438 		Uiso   ? 		N 		-0.42755
N 1.0  		0.2970186200264231 		-0.049808617136127206  0.7964746943924335 		Uiso   ? 		N 		-0.42755
N 1.0  		1.0905526911092012 		0.34816959466090885  0.5748703183070388 		Uiso   ? 		N 		-0.42755
N 1.0  		0.4543709283713564 		0.27382471292570426  0.8039699285548623 		Uiso   ? 		N 		-0.42755
N 1.0  		0.25933082375536837 		0.681862793208362  0.581375615881977 		Uiso   ? 		N 		-0.42755
N 1.0  		0.6257105634136773 		0.6080086367651389  0.7953433382924442 		Uiso   ? 		N 		-0.42755
N 1.0  		0.42552023007065265 		1.0121209147119443  0.5819412939319716 		Uiso   ? 		N 		-0.42755
N 1.0  		-0.20670808929940263 		-0.05643340857787811  0.8046770261173556 		Uiso   ? 		N 		-0.42755
N 1.0  		1.0582640377938952 		0.9367945823927766  0.6184275281566249 		Uiso   ? 		N 		-0.42804
N 1.0  		0.7117110868831856 		0.021837275493178918  0.8128793578422777 		Uiso   ? 		N 		-0.42804
N 1.0  		0.23113356766646928 		0.2735793502797134  0.6168719135191397 		Uiso   ? 		N 		-0.42804
N 1.0  		-0.12714283142881433 		0.35896555108450295  0.831688153004599 		Uiso   ? 		N 		-0.42804
N 1.0  		0.3975618570226267 		0.6089900873491021  0.6170133330316384 		Uiso   ? 		N 		-0.42804
N 1.0  		0.0408363066785547 		0.6889783099420944  0.8128793578422777 		Uiso   ? 		N 		-0.42804
N 1.0  		0.5623295708224685 		0.9402296594366474  0.6189932062066196 		Uiso   ? 		N 		-0.42804
N 1.0  		0.21205040484612397 		0.02674452841299441  0.8232029822546796 		Uiso   ? 		N 		-0.42804
N 1.0  		0.7270768322607438 		0.271861811757778  0.6226701135315846 		Uiso   ? 		N 		-0.42804
N 1.0  		0.37289468750773774 		0.3565119246245952  0.8246171773796662 		Uiso   ? 		N 		-0.42804
N 1.0  		0.8920899055783473 		0.603592109137305  0.6137606842441693 		Uiso   ? 		N 		-0.42804
N 1.0  		0.5383239435471525 		0.6865246834821868  0.8182532993172266 		Uiso   ? 		N 		-0.42804
N 1.0  		0.26651262140633497 		0.40681126705270393  0.6595806062937339 		Uiso   ? 		N 		-0.43067
N 1.0  		0.2076620145959038 		0.319707527725979  0.8768009774916704 		Uiso   ? 		N 		-0.43067
N 1.0  		0.4280096486846737 		0.7336343115124154  0.6546309233562809 		Uiso   ? 		N 		-0.43067
N 1.0  		0.374491212574136 		0.6563450780253214  0.8845790506790965 		Uiso   ? 		N 		-0.43067
N 1.0  		0.5958091659651454 		1.0641377956619884  0.6491155623688334 		Uiso   ? 		N 		-0.43067
N 1.0  		0.5422878727387369 		-0.009323780547649426  0.8763767189541745 		Uiso   ? 		N 		-0.43067
N 1.0  		0.7658798004804662 		0.4038669153008146  0.6646717087436856 		Uiso   ? 		N 		-0.43067
N 1.0  		0.7088781876760958 		0.32216115418588676  0.8797707872541422 		Uiso   ? 		N 		-0.43067
N 1.0  		0.928080036966658 		0.7316714103444892  0.6540652453062864 		Uiso   ? 		N 		-0.43067
N 1.0  		-0.12463940460508144 		0.6580626165472568  0.8801950457916382 		Uiso   ? 		N 		-0.43067
N 1.0  		1.093853260560131 		1.063647070370007  0.6464285916313589 		Uiso   ? 		N 		-0.43067
N 1.0  		0.04441460134780082 		-0.011041319069584847  0.8770838165166677 		Uiso   ? 		N 		-0.43067
N 1.0  		0.40525661124673124 		0.35111394641279814  0.9203581873412566 		Uiso   ? 		N 		-0.48264
N 1.0  		0.3168251357642546 		0.43306507017371676  0.7186939625181724 		Uiso   ? 		N 		-0.48264
N 1.0  		0.5709728937721877 		0.6838256943762882  0.906216236091391 		Uiso   ? 		N 		-0.48264
N 1.0  		0.4834001766018772 		0.7674943566591423  0.702006460043331 		Uiso   ? 		N 		-0.48264
N 1.0  		0.7412260062302767 		1.0192364314456768  0.9096103043913588 		Uiso   ? 		N 		-0.48264
N 1.0  		0.6548384196804946 		1.1031504563745218  0.702006460043331 		Uiso   ? 		N 		-0.48264
N 1.0  		0.906407045636059 		0.3525861222887428  0.9237522556412243 		Uiso   ? 		N 		-0.48264
N 1.0  		0.8188584001883327 		0.43502797134164295  0.7137442795807194 		Uiso   ? 		N 		-0.48264
N 1.0  		0.07382922445764833 		0.6882422220041222  0.9042363629164097 		Uiso   ? 		N 		-0.48264
N 1.0  		0.9857686109571656 		0.7697026204730593  0.7010165234558403 		Uiso   ? 		N 		-0.48264
N 1.0  		0.2385487948123216 		1.0219354205515754  0.9130043726913265 		Uiso   ? 		N 		-0.48264
N 1.0  		0.15588742332817457 		1.1043772696044756  0.7005922649183444 		Uiso   ? 		N 		-0.48264
N 1.0  		0.4872604821632456 		0.14623613701050153  0.5287675572324767 		Uiso   ? 		N 		-0.48317
N 1.0  		-0.1529979396711809 		0.07606242025714006  0.7577257479678016 		Uiso   ? 		N 		-0.48317
N 1.0  		0.6518879209585108 		0.47379526940818534  0.5403639572573665 		Uiso   ? 		N 		-0.48317
N 1.0  		0.020900375061942256 		0.4119638826185102  0.7466950259929065 		Uiso   ? 		N 		-0.48317
N 1.0  		0.8222308438300484 		0.8089606438315832  0.5543644889947336 		Uiso   ? 		N 		-0.48317
N 1.0  		0.1850722853130756 		0.7454117185199726  0.7512204503928634 		Uiso   ? 		N 		-0.48317
N 1.0  		0.9880493537528193 		0.14231033467464912  0.5289089767449754 		Uiso   ? 		N 		-0.48317
N 1.0  		0.35156761157515576 		0.07459024438119541  0.7573014894303057 		Uiso   ? 		N 		-0.48317
N 1.0  		1.1549419692759564 		0.47354990676219455  0.5311716889449538 		Uiso   ? 		N 		-0.48317
N 1.0  		0.5199981228957276 		0.4097556188045932  0.7490991577053835 		Uiso   ? 		N 		-0.48317
N 1.0  		0.3234025272366091 		0.8104328197075278  0.5492733865447819 		Uiso   ? 		N 		-0.48317
N 1.0  		0.68345802631616 		0.740504465600157  0.7529174845428472 		Uiso   ? 		N 		-0.48317
N 1.0  		0.8207023786004739 		0.5164883698105801  0.5843454256444487 		Uiso   ? 		N 		-0.48459
N 1.0  		0.18745613245292195 		0.44631465305721857  0.7888380407175061 		Uiso   ? 		N 		-0.48459
N 1.0  		0.9832794519861561 		0.8467464913141625  0.5721833475695643 		Uiso   ? 		N 		-0.48459
N 1.0  		0.3543904149443392 		0.7797624889586809  0.7926563675549698 		Uiso   ? 		N 		-0.48459
N 1.0  		1.154697242703207 		0.18279517126312692  0.5738803817195481 		Uiso   ? 		N 		-0.48459
N 1.0  		0.5217380230416969 		0.11532044361566396  0.7865753285175275 		Uiso   ? 		N 		-0.48459
N 1.0  		0.3176811996284606 		0.5172244577485524  0.5793957427069958 		Uiso   ? 		N 		-0.48459
N 1.0  		0.6857872535339493 		0.4485229168711356  0.7918078504799778 		Uiso   ? 		N 		-0.48459
N 1.0  		0.4831257297676117 		0.8442928648542546  0.5760016744070281 		Uiso   ? 		N 		-0.48459
N 1.0  		-0.14358794095978183 		0.7812346648346257  0.7935048846299617 		Uiso   ? 		N 		-0.48459
N 1.0  		0.6559916058686486 		0.18451270978506235  0.5764259329445239 		Uiso   ? 		N 		-0.48459
N 1.0  		0.017424307790010453 		0.11262145450976545  0.7838883577800531 		Uiso   ? 		N 		-0.48459
N 1.0  		1.1223604459427325 		0.7738737854549024  0.6116393915566894 		Uiso   ? 		N 		-0.48446
N 1.0  		-0.23492206368711915 		0.8595053489056826  0.8325366700795909 		Uiso   ? 		N 		-0.48446
N 1.0  		0.28855944653653104 		0.1062420257140053  0.620831659869102 		Uiso   ? 		N 		-0.48446
N 1.0  		-0.06721521393596683 		0.19408185297870253  0.8335266066670816 		Uiso   ? 		N 		-0.48446
N 1.0  		0.45416184692595457 		0.44042594955344  0.618851786694121 		Uiso   ? 		N 		-0.48446
N 1.0  		0.09938389862424002 		0.5272843262341742  0.8268798895796448 		Uiso   ? 		N 		-0.48446
N 1.0  		0.6224937502102299 		0.7741191481008931  0.6198417232816115 		Uiso   ? 		N 		-0.48446
N 1.0  		0.26924490008310203 		0.8631857885955442  0.8352236408170653 		Uiso   ? 		N 		-0.48446
N 1.0  		0.7884108681692973 		0.10894101481990383  0.6273369574440403 		Uiso   ? 		N 		-0.48446
N 1.0  		0.43960671641539384 		0.1945725782706841  0.8295668603171191 		Uiso   ? 		N 		-0.48446
N 1.0  		0.9532443206600035 		0.44116203749141236  0.6228115330440833 		Uiso   ? 		N 		-0.48446
N 1.0  		0.601842143392977 		0.5292472274021004  0.825465694454658 		Uiso   ? 		N 		-0.48446
N 1.0  		0.32306214671853495 		0.23432132692118954  0.673156879493605 		Uiso   ? 		N 		-0.48480
N 1.0  		0.270639030815077 		0.15752281872607715  0.8657702555167752 		Uiso   ? 		N 		-0.48480
N 1.0  		0.49287500473222845 		0.5726764157424674  0.6625504160562057 		Uiso   ? 		N 		-0.48480
N 1.0  		0.4386686335135741 		0.4914613799195211  0.8669016116167644 		Uiso   ? 		N 		-0.48480
N 1.0  		0.6581815810127623 		0.9024438119540682  0.6665101624061682 		Uiso   ? 		N 		-0.48480
N 1.0  		0.6050640535242993 		0.8263813916969281  0.8620933481918102 		Uiso   ? 		N 		-0.48480
N 1.0  		0.8243593325893277 		0.23481205221317109  0.677258045356066 		Uiso   ? 		N 		-0.48480
N 1.0  		-0.22891656670879956 		0.15924035724801258  0.869588582354239 		Uiso   ? 		N 		-0.48480
N 1.0  		0.9948578045651784 		0.5707135145745412  0.663681772156195 		Uiso   ? 		N 		-0.48480
N 1.0  		-0.06492427728456357 		0.49317891844145645  0.8735483287042013 		Uiso   ? 		N 		-0.48480
N 1.0  		1.1571654467105146 		0.9017077240160958  0.6646717087436856 		Uiso   ? 		N 		-0.48480
N 1.0  		0.10372520068522639 		0.8236824025910296  0.8584164408668451 		Uiso   ? 		N 		-0.48480
N 1.0  		0.5125072072051273 		0.35185003435077045  0.9110244995163453 		Uiso   ? 		N 		-0.43554
N 1.0  		0.4229146728247064 		0.43232898223574445  0.7186939625181724 		Uiso   ? 		N 		-0.43554
N 1.0  		0.6763680192476345 		0.6838256943762882  0.9005594555914448 		Uiso   ? 		N 		-0.43554
N 1.0  		0.5920483933531313 		0.7684758072431054  0.7065318844432881 		Uiso   ? 		N 		-0.43554
N 1.0  		0.847902549216589 		1.014574541171852  1.9093048382443616 		Uiso   ? 		N 		-0.43554
N 1.0  		0.7621788260523393 		1.1036411816665033  0.7120472454307356 		Uiso   ? 		N 		-0.43554
N 1.0  		1.0140168832482497 		0.352340759642752  0.9230451580787311 		Uiso   ? 		N 		-0.43554
N 1.0  		0.9246937801081748 		0.43208361958975366  0.7179868649556791 		Uiso   ? 		N 		-0.43554
N 1.0  		0.18205246086424337 		0.6892236725880853  0.9072061726788816 		Uiso   ? 		N 		-0.43554
N 1.0  		1.0926752393615033 		0.7684758072431054  0.7003094258933471 		Uiso   ? 		N 		-0.43554
N 1.0  		0.34522533779863407 		1.0172735302777505  0.9120144361038358 		Uiso   ? 		N 		-0.43554
N 1.0  		0.260660352386369 		1.1014329178525861  0.7188353820306711 		Uiso   ? 		N 		-0.43554
N 1.0  		0.5931046597059357 		0.14500932378054765  0.5231107767325305 		Uiso   ? 		N 		-0.43591
N 1.0  		-0.04877267071652624 		0.07287270585925999  0.7408968259804615 		Uiso   ? 		N 		-0.43591
N 1.0  		0.7601768960559703 		0.4757581705761115  0.5354142743199136 		Uiso   ? 		N 		-0.43591
N 1.0  		0.12260863129407475 		0.40926489351261164  0.7346743674305206 		Uiso   ? 		N 		-0.43591
N 1.0  		0.9301605772737132 		0.8119049955834725  0.5318787865074471 		Uiso   ? 		N 		-0.43591
N 1.0  		0.2920599265080141 		0.7422220041220925  0.7417453430554535 		Uiso   ? 		N 		-0.43591
N 1.0  		1.0940907473681023 		0.14402787319658455  0.5272119425949915 		Uiso   ? 		N 		-0.43591
N 1.0  		0.45353650142478635 		0.06943762881538915  0.7334015918180327 		Uiso   ? 		N 		-0.43591
N 1.0  		0.26162448717976544 		0.47183236824025915  0.529898913332466 		Uiso   ? 		N 		-0.43591
N 1.0  		0.6231192740204545 		0.40435764059279616  0.7348157869430192 		Uiso   ? 		N 		-0.43591
N 1.0  		0.4276782607823918 		0.8111689076455001  0.525797747470005 		Uiso   ? 		N 		-0.43591
N 1.0  		-0.21210056078531864 		0.7338796741584062  0.7401897284179683 		Uiso   ? 		N 		-0.43591
N 1.0  		0.9244128567970209 		0.5135440180586908  0.5833554890569581 		Uiso   ? 		N 		-0.43723
N 1.0  		0.2904786755413523 		0.4394444989694769  0.8069397383173341 		Uiso   ? 		N 		-0.43723
N 1.0  		1.0845122632825015 		0.8401216998724115  0.5730318646445561 		Uiso   ? 		N 		-0.43723
N 1.0  		0.4609465993177302 		0.7812346648346257  0.7937877236549591 		Uiso   ? 		N 		-0.43723
N 1.0  		0.2613556888844318 		0.18230444597114537  0.5786886451445025 		Uiso   ? 		N 		-0.43723
N 1.0  		0.6257748735466063 		0.11090391598783003  0.7886966212050074 		Uiso   ? 		N 		-0.43723
N 1.0  		0.42689235058299096 		0.515506919226617  0.580527098806985 		Uiso   ? 		N 		-0.43723
N 1.0  		-0.20677007828637214 		0.44705074099519093  0.7990202456174094 		Uiso   ? 		N 		-0.43723
N 1.0  		0.5849807374812094 		0.840612425164393  0.575577415869532 		Uiso   ? 		N 		-0.43723
N 1.0  		-0.0395358163551362 		0.7738737854549024  0.8019900553798811 		Uiso   ? 		N 		-0.43723
N 1.0  		0.7629639729638507 		0.18426734713907156  0.5801028402694891 		Uiso   ? 		N 		-0.43723
N 1.0  		0.1198510473297323 		0.10795956423594073  0.7943534017049536 		Uiso   ? 		N 		-0.43723
N 1.0  		0.22995866322672406 		0.7731376975169301  0.6172961720566357 		Uiso   ? 		N 		-0.43852
N 1.0  		-0.12979869059797783 		0.8538620080478948  0.8205160115172051 		Uiso   ? 		N 		-0.43852
N 1.0  		0.395663291013462 		0.10795956423594073  0.6223872745065873 		Uiso   ? 		N 		-0.43852
N 1.0  		0.04252832302236709 		0.1955540288546472  0.8215059481046957 		Uiso   ? 		N 		-0.43852
N 1.0  		0.5617300175698652 		0.43797232309353223  0.6103666159442015 		Uiso   ? 		N 		-0.43852
N 1.0  		0.2064877431011709 		0.5290018647561096  0.8256071139671568 		Uiso   ? 		N 		-0.43852
N 1.0  		0.72581211740755 		0.7716655216409855  0.6238014696315738 		Uiso   ? 		N 		-0.43852
N 1.0  		0.37809680938383783 		0.862449700657572  0.8268798895796448 		Uiso   ? 		N 		-0.43852
N 1.0  		0.8957424769182941 		0.10771420158994996  0.626205601344051 		Uiso   ? 		N 		-0.43852
N 1.0  		0.5452296061629065 		0.1916282265187948  0.8155663285797522 		Uiso   ? 		N 		-0.43852
N 1.0  		1.0622189097196202 		0.4406713121994308  0.6161648159566465 		Uiso   ? 		N 		-0.43852
N 1.0  		0.7071692090316001 		0.5218863480223771  0.8171219432172373 		Uiso   ? 		N 		-0.43852
N 1.0  		0.4279818272581946 		0.23039552458533713  0.6542066648187851 		Uiso   ? 		N 		-0.43710
N 1.0  		0.37725215625648445 		0.1582589066640495  0.8793465287166462 		Uiso   ? 		N 		-0.43710
N 1.0  		0.5959961558569553 		0.5672784375306703  0.6526510501812999 		Uiso   ? 		N 		-0.43710
N 1.0  		0.5440790330887573 		0.4885170281676318  0.8779323335916597 		Uiso   ? 		N 		-0.43710
N 1.0  		0.7672219087632433 		0.9029345372460498  0.6619847380062112 		Uiso   ? 		N 		-0.43710
N 1.0  		0.7059135514442658 		0.8219648640690942  0.884013372629102 		Uiso   ? 		N 		-0.43710
N 1.0  		0.9258134316808506 		0.2299047992933556  0.6549137623812784 		Uiso   ? 		N 		-0.43710
N 1.0  		-0.12725877506779504 		0.15261556580626168  0.8874074409290696 		Uiso   ? 		N 		-0.43710
N 1.0  		1.0975956423135265 		0.5675238001766612  0.6495398209063293 		Uiso   ? 		N 		-0.43710
N 1.0  		0.042667965081931436 		0.4894984787515949  0.881467821404126 		Uiso   ? 		N 		-0.43710
N 1.0  		0.2659487946150346 		0.9012169987241143  0.659156347756238 		Uiso   ? 		N 		-0.43710
N 1.0  		0.2038802870201878 		0.820001962901168  0.8833062750666086 		Uiso   ? 		N 		-0.43710
N 1.0  		0.4577657555347094 		0.34988713318284426  0.9113073385413426 		Uiso   ? 		N 		-0.41946
N 1.0  		0.3680986848405763 		0.42766709196191977  0.7268962942430944 		Uiso   ? 		N 		-0.41946
N 1.0  		0.6202770902295272 		0.6791638041024635  0.8939127385040078 		Uiso   ? 		N 		-0.41946
N 1.0  		0.5363343012345144 		0.7662675434291885  0.7038449137058135 		Uiso   ? 		N 		-0.41946
N 1.0  		0.7928916663058252 		1.013347727941898  0.9125801141538306 		Uiso   ? 		N 		-0.41946
N 1.0  		0.7061865050705286 		1.1004514672686232  0.7147342161682101 		Uiso   ? 		N 		-0.41946
N 1.0  		0.9597661506133551 		0.3513593090587889  0.9188025727037714 		Uiso   ? 		N 		-0.41946
N 1.0  		0.8697727076108596 		0.430611443713809  0.7206738356931536 		Uiso   ? 		N 		-0.41946
N 1.0  		0.12670640802226907 		0.6877514967121405  0.9039535238914125 		Uiso   ? 		N 		-0.41946
N 1.0  		1.0376555588278915 		0.7655314554912162  0.7000265868683497 		Uiso   ? 		N 		-0.41946
N 1.0  		0.2907709126142579 		1.018009618215723  0.9134286312288223 		Uiso   ? 		N 		-0.41946
N 1.0  		0.20580501857991806 		1.1009421925606047  0.7127543429932288 		Uiso   ? 		N 		-0.41946
N 1.0  		0.537381769964471 		0.14108352144469527  0.5164640596450936 		Uiso   ? 		N 		-0.42234
N 1.0  		-0.09999807634767932 		0.07581705761114928  0.7499476747803755 		Uiso   ? 		N 		-0.42234
N 1.0  		0.7044868756599376 		0.4723230935322407  0.5344243377324229 		Uiso   ? 		N 		-0.42234
N 1.0  		0.0661584606221727 		0.40558445382275005  0.7324116552305422 		Uiso   ? 		N 		-0.42234
N 1.0  		0.8766940666372725 		0.8099420944155463  0.5436166060448356 		Uiso   ? 		N 		-0.42234
N 1.0  		0.23864388046270138 		0.7441849052900187  0.7433009576929387 		Uiso   ? 		N 		-0.42234
N 1.0  		1.0383021189357735 		0.13912062027676905  0.5190096108700694 		Uiso   ? 		N 		-0.42234
N 1.0  		0.40132965772258633 		0.07041907939935224  0.7445737333054265 		Uiso   ? 		N 		-0.42234
N 1.0  		1.2057007275941705 		0.4683972911963883  0.5260805864950022 		Uiso   ? 		N 		-0.42234
N 1.0  		0.5677250777333116 		0.40533909117675926  0.7336844308430299 		Uiso   ? 		N 		-0.42234
N 1.0  		0.3760102795608838 		0.8106781823535185  0.5388083426198813 		Uiso   ? 		N 		-0.42234
N 1.0  		0.7355903337046477 		0.7368240259102955  0.7449979918429225 		Uiso   ? 		N 		-0.42234
N 1.0  		0.8690580063321987 		0.5103543036608107  0.5907093037068882 		Uiso   ? 		N 		-0.42126
N 1.0  		0.2399893484634844 		0.44386102659731086  0.7966161139049321 		Uiso   ? 		N 		-0.42126
N 1.0  		1.032329491302886 		0.8398763372264207  0.5624254012071569 		Uiso   ? 		N 		-0.42126
N 1.0  		0.4073245395769764 		0.7785356757287272  0.7977474700049214 		Uiso   ? 		N 		-0.42126
N 1.0  		1.2049412102633132 		0.1778879183433114  0.5822241329569688 		Uiso   ? 		N 		-0.42126
N 1.0  		0.5725865917733594 		0.10992246540386692  0.7848782943675436 		Uiso   ? 		N 		-0.42126
N 1.0  		0.37133380756868717 		0.5140347433506723  0.5842040061319501 		Uiso   ? 		N 		-0.42126
N 1.0  		0.7371922799919998 		0.44508783982726474  0.7977474700049214 		Uiso   ? 		N 		-0.42126
N 1.0  		0.5325197366383997 		0.8393856119344392  0.566526567069618 		Uiso   ? 		N 		-0.42126
N 1.0  		-0.09335277102252365 		0.7746098733928748  0.7988788261049107 		Uiso   ? 		N 		-0.42126
N 1.0  		0.7064480636010843 		0.17960545686524684  0.5853353622319394 		Uiso   ? 		N 		-0.42126
N 1.0  		0.07093896187161976 		0.1121307292177839  0.7837469382675544 		Uiso   ? 		N 		-0.42126
N 1.0  		1.1749506030213115 		0.7706840710570223  0.6168719135191397 		Uiso   ? 		N 		-0.42076
N 1.0  		-0.18059031826162386 		0.8585238983217196  0.8308396359296071 		Uiso   ? 		N 		-0.42076
N 1.0  		0.34058666941183363 		0.10575130042202376  0.6300239281815148 		Uiso   ? 		N 		-0.42076
N 1.0  		-0.014044527408415802 		0.1916282265187948  0.8241929188421703 		Uiso   ? 		N 		-0.42076
N 1.0  		0.5052798468979632 		0.43429188340367064  0.61262932814418 		Uiso   ? 		N 		-0.42076
N 1.0  		0.15145926494471118 		0.5243399744822849  0.8199503334672105 		Uiso   ? 		N 		-0.42076
N 1.0  		0.6709808553236833 		0.76994798311905  0.6298825086690161 		Uiso   ? 		N 		-0.42076
N 1.0  		0.3237891356809268 		0.8622043380115811  0.832112411542095 		Uiso   ? 		N 		-0.42076
N 1.0  		0.8410010252478762 		0.10575130042202376  0.6328523184314878 		Uiso   ? 		N 		-0.42076
N 1.0  		0.4922866839074214 		0.19113750122681325  0.8229201432296822 		Uiso   ? 		N 		-0.42076
N 1.0  		1.0038475298739045 		0.43527333398763374  0.6140435232691666 		Uiso   ? 		N 		-0.42076
N 1.0  		0.653417993055077 		0.5236038865443126  0.820940270054701 		Uiso   ? 		N 		-0.42076
N 1.0  		0.37230060448500996 		0.22867798606340173  0.6577421526312515 		Uiso   ? 		N 		-0.41998
N 1.0  		0.32047561327621993 		0.1560506428501325  0.8789222701791503 		Uiso   ? 		N 		-0.41998
N 1.0  		0.5413773839454183 		0.565560899008735  0.6512368550563133 		Uiso   ? 		N 		-0.41998
N 1.0  		0.4905643790071479 		0.4890077534596134  0.8756696213916811 		Uiso   ? 		N 		-0.41998
N 1.0  		0.7117531761623881 		0.9012169987241143  0.6594391867812354 		Uiso   ? 		N 		-0.41998
N 1.0  		0.6546464788448326 		0.8227009520070666  0.8721341335792148 		Uiso   ? 		N 		-0.41998
N 1.0  		0.8759111105288434 		0.23039552458533713  0.6699042307061359 		Uiso   ? 		N 		-0.41998
N 1.0  		-0.18040538987276178 		0.15384237903621553  0.881892079941622 		Uiso   ? 		N 		-0.41998
N 1.0  		1.041513510918267 		0.5645794484247719  0.6477013672438469 		Uiso   ? 		N 		-0.41998
N 1.0  		-0.011573969930115169 		0.4902345666895672  0.8813264018916275 		Uiso   ? 		N 		-0.41998
N 1.0  		0.21060274177306032 		0.8997448228481696  0.6560451184812676 		Uiso   ? 		N 		-0.41998
N 1.0  		0.1531608745242945 		0.8209834134851312  0.8721341335792148 		Uiso   ? 		N 		-0.41998
N 1.0  		0.46736839267684993 		0.19187358916478559  0.9213481239287472 		Uiso   ? 		N 		-0.39544
N 1.0  		0.3809808061270678 		0.27578761409363045  0.6973396161308753 		Uiso   ? 		N 		-0.39544
N 1.0  		0.6321361064766918 		0.523113161252331  0.9132872117163238 		Uiso   ? 		N 		-0.39544
N 1.0  		0.5495011278610883 		0.6107076258710374  0.6892787039184518 		Uiso   ? 		N 		-0.39544
N 1.0  		0.8035174084872927 		0.8595053489056826  0.9349243971286182 		Uiso   ? 		N 		-0.39544
N 1.0  		0.7167201156925881 		0.9404750220826382  0.6979052941808699 		Uiso   ? 		N 		-0.39544
N 1.0  		0.9666128919921004 		0.1886838747669055  0.9202167678287579 		Uiso   ? 		N 		-0.39544
N 1.0  		0.8768166650621979 		0.2708803611738149  0.7072389820057813 		Uiso   ? 		N 		-0.39544
N 1.0  		0.13410960712740205 		0.5270389635881834  0.9137114702538198 		Uiso   ? 		N 		-0.39544
N 1.0  		1.0530458952140573 		0.6114437138090097  0.687157411230972 		Uiso   ? 		N 		-0.39544
N 1.0  		0.30468909189385346 		0.8609775247816273  0.9347829776161196 		Uiso   ? 		N 		-0.39544
N 1.0  		0.22107267520720314 		0.9466090882324076  0.6986123917433632 		Uiso   ? 		N 		-0.39544
N 1.0  		1.0496667967863966 		0.9829227598390422  0.5355556938324122 		Uiso   ? 		N 		-0.39861
N 1.0  		0.418760263680429 		0.9191284718814409  0.7650795626177318 		Uiso   ? 		N 		-0.39861
N 1.0  		0.7167708722517613 		0.3162724506821082  0.5502633231322726 		Uiso   ? 		N 		-0.39861
N 1.0  		0.07330102610980757 		0.2473255471587006  0.7452808308679197 		Uiso   ? 		N 		-0.39861
N 1.0  		0.8908904747800618 		0.6538914515654137  0.5506875816697685 		Uiso   ? 		N 		-0.39861
N 1.0  		0.2441916090848851 		0.5827362842280892  0.7598470406552815 		Uiso   ? 		N 		-0.39861
N 1.0  		0.5494079900546673 		0.9836588477770146  0.5293332352824713 		Uiso   ? 		N 		-0.39861
N 1.0  		-0.08792371281231443 		0.9159387574835608  0.7630996894427505 		Uiso   ? 		N 		-0.39861
N 1.0  		0.21824485624410017 		0.31749926391206207  0.5576171377822027 		Uiso   ? 		N 		-0.39861
N 1.0  		0.5758314860462975 		0.24560800863676513  0.7564529723553137 		Uiso   ? 		N 		-0.39861
N 1.0  		0.3906886091163488 		0.6538914515654137  0.543899445069833 		Uiso   ? 		N 		-0.39861
N 1.0  		0.746835951157408 		0.5795465698302091  0.762534011392756 		Uiso   ? 		N 		-0.39861
N 1.0  		0.8804832446118563 		0.3525861222887428  0.5801028402694891 		Uiso   ? 		N 		-0.39632
N 1.0  		0.2516534697840153 		0.2912454607910492  0.7755446065426324 		Uiso   ? 		N 		-0.39632
N 1.0  		1.0559106575195663 		0.6906958484640299  0.552526035332251 		Uiso   ? 		N 		-0.39632
N 1.0  		0.4147694056503895 		0.6200314064186869  0.7854439724175384 		Uiso   ? 		N 		-0.39632
N 1.0  		0.21957143078412894 		1.020953969967612  0.5675165036571086 		Uiso   ? 		N 		-0.39632
N 1.0  		0.5865705097438194 		-0.046128177446265586  0.7681907918927022 		Uiso   ? 		N 		-0.39632
N 1.0  		0.38093644471082766 		0.35602119933261367  0.5785472256320039 		Uiso   ? 		N 		-0.39632
N 1.0  		0.7496318256881365 		0.28977328491510457  0.7831812602175598 		Uiso   ? 		N 		-0.39632
N 1.0  		0.5541556219586822 		0.6897143978800668  0.5554958450947228 		Uiso   ? 		N 		-0.39632
N 1.0  		-0.08278396990907266 		0.6215035822946315  0.7782315772801068 		Uiso   ? 		N 		-0.39632
N 1.0  		0.7131291600376103 		1.0216900579055845  0.5738803817195481 		Uiso   ? 		N 		-0.39632
N 1.0  		0.08620661849890474 		-0.04220237511041319  0.7711606016551741 		Uiso   ? 		N 		-0.39632
N 1.0  		0.3517629288127119 		0.9483266267543431  0.6301653476940134 		Uiso   ? 		N 		-0.39490
N 1.0  		0.0029559199429375904 		0.03778584748257925  0.8393248066795264 		Uiso   ? 		N 		-0.39490
N 1.0  		0.5159866018700314 		0.27848660319952895  0.6146092013191612 		Uiso   ? 		N 		-0.39490
N 1.0  		0.164593222225853 		0.36828933163215233  0.8364964164295533 		Uiso   ? 		N 		-0.39490
N 1.0  		0.6821695317084271 		0.6134066149769359  0.6225286940190861 		Uiso   ? 		N 		-0.39490
N 1.0  		0.33744668134302425 		0.7076258710373933  0.8516283042669096 		Uiso   ? 		N 		-0.39490
N 1.0  		0.8519647944764248 		0.9483266267543431  0.6317209623314987 		Uiso   ? 		N 		-0.39490
N 1.0  		0.5088140074689472 		0.03974874865050545  0.8413046798545076 		Uiso   ? 		N 		-0.39490
N 1.0  		1.0175203496357381 		0.2777505152615566  1.614303735172164 		Uiso   ? 		N 		-0.39490
N 1.0  		0.6649835063393112 		0.3695161448621062  0.8387591286295318 		Uiso   ? 		N 		-0.39490
N 1.0  		1.185411998475618 		0.6143880655608991  0.627478376956539 		Uiso   ? 		N 		-0.39490
N 1.0  		-0.16203670101309936 		0.7056629698694671  0.8486584945044378 		Uiso   ? 		N 		-0.39490
N 1.0  		0.3947499617881606 		1.0793502797134165  0.681783469756023 		Uiso   ? 		N 		-0.39582
N 1.0  		0.3304703614175873 		-0.002453626459907744  0.8635075433167967 		Uiso   ? 		N 		-0.39582
N 1.0  		0.551871648745157 		0.4097556188045932  0.6687728746061467 		Uiso   ? 		N 		-0.39582
N 1.0  		0.4994309375960033 		0.32952203356561  1.8542926478823842 		Uiso   ? 		N 		-0.39582
N 1.0  		0.7181027220287213 		0.7422220041220925  0.6757024307185808 		Uiso   ? 		N 		-0.39582
N 1.0  		0.6695789655409072 		0.6681224850328786  1.8528784527573978 		Uiso   ? 		N 		-0.39582
N 1.0  		0.89669341579879 		1.0815585435273336  0.683480503906007 		Uiso   ? 		N 		-0.39582
N 1.0  		-0.17101524290295078 		-0.004171164981843165  0.8606791530668236 		Uiso   ? 		N 		-0.39582
N 1.0  		1.051762416200244 		0.40828344292864854  0.6667930014311655 		Uiso   ? 		N 		-0.39582
N 1.0  		-0.003386548826528446 		0.3285405829816469  0.8711441969917242 		Uiso   ? 		N 		-0.39582
N 1.0  		0.21774530726069521 		0.7414859161841202  0.6775408843810634 		Uiso   ? 		N 		-0.39582
N 1.0  		0.170358537948241 		0.6700853862008048  0.8523354018294028 		Uiso   ? 		N 		-0.39582
N 1.0  		0.5717405267719587 		0.3003238786927078  0.9077718507288761 		Uiso   ? 		N 		-0.46233
N 1.0  		0.4826322349501729 		0.38644616743546967  0.7018650405308323 		Uiso   ? 		N 		-0.46233
N 1.0  		0.7349157248523088 		0.6347531651781334  0.9131457922038251 		Uiso   ? 		N 		-0.46233
N 1.0  		0.6531219093031755 		0.7206300912749043  0.6991780697933578 		Uiso   ? 		N 		-0.46233
N 1.0  		0.9085598824448224 		0.9684463637255865  0.9196510897787633 		Uiso   ? 		N 		-0.46233
N 1.0  		0.8216663027597804 		1.0543232898223576  0.7066733039557866 		Uiso   ? 		N 		-0.46233
N 1.0  		0.0700600275247869 		0.3020414172146433  0.9093274653663613 		Uiso   ? 		N 		-0.46233
N 1.0  		0.9803981006819645 		0.384973991559525  0.6996023283308538 		Uiso   ? 		N 		-0.46233
N 1.0  		0.240076578087962 		0.6386789675139858  0.9148428263538091 		Uiso   ? 		N 		-0.46233
N 1.0  		0.15514355339905442 		0.722102267150849  0.6971981966183766 		Uiso   ? 		N 		-0.46233
N 1.0  		0.4054817624047925 		0.9699185396015311  0.9196510897787633 		Uiso   ? 		N 		-0.46233
N 1.0  		0.3225685549259951 		1.0565315536362745  0.7095016942057598 		Uiso   ? 		N 		-0.46233
N 1.0  		0.6521306673622678 		1.0960349396407891  0.5359799523699083 		Uiso   ? 		N 		-0.46261
N 1.0  		0.01131940716247124 		0.023064088723132793  0.7391997918304777 		Uiso   ? 		N 		-0.46261
N 1.0  		0.8200412096629017 		0.42889390519187365  0.5501219036197739 		Uiso   ? 		N 		-0.46261
N 1.0  		0.17990546758735618 		0.35896555108450295  0.7466950259929065 		Uiso   ? 		N 		-0.46261
N 1.0  		0.9891573349456307 		0.7616056531553637  0.5280604596699834 		Uiso   ? 		N 		-0.46261
N 1.0  		0.34938963214672775 		0.6924133869859653  0.7523518064928527 		Uiso   ? 		N 		-0.46261
N 1.0  		1.1549722255073838 		1.0957895769947985  0.5327273035824391 		Uiso   ? 		N 		-0.46261
N 1.0  		0.5169650045161513 		0.025026989891058986  0.7400483089054695 		Uiso   ? 		N 		-0.46261
N 1.0  		0.32316465044274895 		0.42619491608597515  0.5453136401948195 		Uiso   ? 		N 		-0.46261
N 1.0  		0.680613326386329 		0.35700264991657676  0.7516447089303594 		Uiso   ? 		N 		-0.46261
N 1.0  		0.4906641882834019 		0.7633231916772991  0.5246663913700157 		Uiso   ? 		N 		-0.46261
N 1.0  		-0.15050993293120712 		0.6921680243399746  0.7580085869927989 		Uiso   ? 		N 		-0.46261
N 1.0  		0.9854382293018966 		0.4681519285503975  0.5768501914820199 		Uiso   ? 		N 		-0.46260
N 1.0  		0.3555108131210163 		0.3999411129649622  0.7927977870674684 		Uiso   ? 		N 		-0.46260
N 1.0  		1.15407243317195 		0.8015997644518599  0.5687892792695965 		Uiso   ? 		N 		-0.46260
N 1.0  		0.5194285662315401 		0.7311806850525077  0.7830398407050612 		Uiso   ? 		N 		-0.46260
N 1.0  		0.32340184528267507 		0.13470409264893515  0.5754359963570334 		Uiso   ? 		N 		-0.46260
N 1.0  		0.6869229258103628 		0.06575718912552754  0.7806357089925839 		Uiso   ? 		N 		-0.46260
N 1.0  		0.4863557555678477 		0.4674158406124252  0.5730318646445561 		Uiso   ? 		N 		-0.46260
N 1.0  		-0.14508316354192355 		0.4004318382569438  0.7911007529174846 		Uiso   ? 		N 		-0.46260
N 1.0  		0.6505758092641497 		0.7984100500539798  0.5758602548945293 		Uiso   ? 		N 		-0.46260
N 1.0  		0.021949726985790174 		0.7353518500343508  0.7780901577676081 		Uiso   ? 		N 		-0.46260
N 1.0  		0.8196057434944477 		0.13053292766709199  0.5795371622194944 		Uiso   ? 		N 		-0.46260
N 1.0  		0.18862699522072707 		0.07041907939935224  0.7836055187550558 		Uiso   ? 		N 		-0.46260
N 1.0  		0.28769807511036033 		0.7262734321326921  0.6337008355064798 		Uiso   ? 		N 		-0.46055
N 1.0  		-0.06278840277648357 		0.8153400726273433  0.8336680261795801 		Uiso   ? 		N 		-0.46055
N 1.0  		0.45571888018600953 		1.0584944548042008  0.6199831427941103 		Uiso   ? 		N 		-0.46055
N 1.0  		0.10603783890433281 		0.14918048876239082  0.8265970505546473 		Uiso   ? 		N 		-0.46055
N 1.0  		0.6237433046226764 		0.38988124447934047  0.6181446891316277 		Uiso   ? 		N 		-0.46055
N 1.0  		0.26972782774279064 		0.48336441260182555  0.8376277725295426 		Uiso   ? 		N 		-0.46055
N 1.0  		0.7874573651837184 		0.7228383550888213  0.6246499867065658 		Uiso   ? 		N 		-0.46055
N 1.0  		0.4399721425780317 		0.8170576111492788  0.8339508652045775 		Uiso   ? 		N 		-0.46055
N 1.0  		0.9554300268141991 		1.0575130042202374  0.6228115330440833 		Uiso   ? 		N 		-0.46055
N 1.0  		0.6087895866360001 		0.14918048876239082  0.8257485334796555 		Uiso   ? 		N 		-0.46055
N 1.0  		1.1238072164277724 		0.392580233585239  0.616730494006641 		Uiso   ? 		N 		-0.46055
N 1.0  		-0.22960000550901996 		0.4821375993718717  0.83578931886706 		Uiso   ? 		N 		-0.46055
N 1.0  		0.49056036966024147 		0.185984885661007  0.6566107965312622 		Uiso   ? 		N 		-0.46191
N 1.0  		0.4369761948588393 		0.10771420158994996  0.8717098750417187 		Uiso   ? 		N 		-0.46191
N 1.0  		0.6543883123573166 		0.5174698203945431  0.6608533819062219 		Uiso   ? 		N 		-0.46191
N 1.0  		0.6043354576949156 		0.44116203749141236  1.8624949796073063 		Uiso   ? 		N 		-0.46191
N 1.0  		0.8240368236438491 		0.8533712827559133  0.674429655106093 		Uiso   ? 		N 		-0.46191
N 1.0  		-0.22999922593014765 		0.777554225144764  0.8742554262666946 		Uiso   ? 		N 		-0.46191
N 1.0  		0.9894215555991129 		0.1850034350770439  0.6557622794562702 		Uiso   ? 		N 		-0.46191
N 1.0  		-0.06703521980706884 		0.10476984983806066  0.8717098750417187 		Uiso   ? 		N 		-0.46191
N 1.0  		1.1553831976423312 		0.5182059083325156  0.6632575136186991 		Uiso   ? 		N 		-0.46191
N 1.0  		0.10018608917039026 		0.4409166748454216  0.8677501286917564 		Uiso   ? 		N 		-0.46191
N 1.0  		0.32412846094306635 		0.8514083815879872  0.6721669429061145 		Uiso   ? 		N 		-0.46191
N 1.0  		0.2663273520405058 		0.7736284228089116  0.8779323335916597 		Uiso   ? 		N 		-0.46191
N 1.0  		0.5160593039987741 		0.2986063401707724  0.9098931434163561 		Uiso   ? 		N 		-0.26502
N 1.0  		0.42672972438181067 		0.3830110903915988  0.7063904649307893 		Uiso   ? 		N 		-0.26502
N 1.0  		0.6792826455242927 		0.6305820001962902  0.9076304312163775 		Uiso   ? 		N 		-0.26502
N 1.0  		0.5964351767363598 		0.7181764648149966  0.696632518568382 		Uiso   ? 		N 		-0.26502
N 1.0  		0.8525018227721473 		0.9642751987437433  0.9183783141662754 		Uiso   ? 		N 		-0.26502
N 1.0  		0.7657966615368506 		1.0513789380704683  0.7045520112683068 		Uiso   ? 		N 		-0.26502
N 1.0  		1.0159259997312766 		0.29836097752478163  0.9186611531912728 		Uiso   ? 		N 		-0.26502
N 1.0  		0.9257288641792994 		0.3793306507017372  0.7103502112807516 		Uiso   ? 		N 		-0.26502
N 1.0  		0.18465598893227547 		0.6345078025321426  0.9077718507288761 		Uiso   ? 		N 		-0.26502
N 1.0  		1.0996119048126862 		0.7181764648149966  0.6945112258809021 		Uiso   ? 		N 		-0.26502
N 1.0  		0.3486306831108157 		0.9650112866817157  0.918519733678774 		Uiso   ? 		N 		-0.26502
N 1.0  		0.2665674363213364 		1.051624300716459  0.7116229868932396 		Uiso   ? 		N 		-0.26502
N 1.0  		0.5965304573796839 		1.0923544999509276  0.528626137719978 		Uiso   ? 		N 		-0.27001
N 1.0  		-0.04585804443986806 		0.01962901167926195  0.7440080552554319 		Uiso   ? 		N 		-0.27001
N 1.0  		0.7634026205412545 		0.4239866522720581  0.5447479621448249 		Uiso   ? 		N 		-0.27001
N 1.0  		0.124975597467193 		0.3557758366866228  0.739058372317979 		Uiso   ? 		N 		-0.27001
N 1.0  		0.937219922483777 		0.7618510158013545  0.538525503594884 		Uiso   ? 		N 		-0.27001
N 1.0  		0.2937324810961274 		0.689469035234076  0.7500890942928742 		Uiso   ? 		N 		-0.27001
N 1.0  		1.0980970744908227 		1.0921091373049368  0.5303231718699619 		Uiso   ? 		N 		-0.27001
N 1.0  		0.4591412847739755 		0.019874374325252724  0.7420281820804507 		Uiso   ? 		N 		-0.27001
N 1.0  		0.26567610063178354 		0.4212876631661596  0.5406467962823639 		Uiso   ? 		N 		-0.27001
N 1.0  		0.6251598678852103 		0.352340759642752  0.7424524406179467 		Uiso   ? 		N 		-0.27001
N 1.0  		0.4355306256137571 		0.7618510158013545  0.5332929816324337 		Uiso   ? 		N 		-0.27001
N 1.0  		-0.20727999943458314 		0.6852978702522329  0.7519275479553568 		Uiso   ? 		N 		-0.27001
N 1.0  		0.929706541937584 		0.4625085876926097  0.5810927768569796 		Uiso   ? 		N 		-0.26450
N 1.0  		0.2990277731036821 		0.3957699479831191  0.7913835919424819 		Uiso   ? 		N 		-0.26450
N 1.0  		1.0991995041198035 		0.7976739621160075  0.5598798499821812 		Uiso   ? 		N 		-0.26450
N 1.0  		0.46419639552559877 		0.7282363333006183  0.7885552016925087 		Uiso   ? 		N 		-0.26450
N 1.0  		0.2657008052993801 		0.12979683972911965  0.5744460597695428 		Uiso   ? 		N 		-0.26450
N 1.0  		0.6310773563100172 		0.06158602414368437  0.7771002211801176 		Uiso   ? 		N 		-0.26450
N 1.0  		0.42966022537818394 		0.463244675630582  0.5751531573320361 		Uiso   ? 		N 		-0.26450
N 1.0  		-0.20122223600519945 		0.3982235744430268  0.7881309431550129 		Uiso   ? 		N 		-0.26450
N 1.0  		0.5951552201084631 		0.7942388850721367  0.5672336646321113 		Uiso   ? 		N 		-0.26450
N 1.0  		-0.03370094758792158 		0.7277456080086369  0.7861510699800316 		Uiso   ? 		N 		-0.26450
N 1.0  		0.7654536188958498 		0.13102365295907353  0.5743046402570441 		Uiso   ? 		N 		-0.26450
N 1.0  		0.1299357195435374 		0.06183138678967515  0.7809185480175813 		Uiso   ? 		N 		-0.26450
N 1.0  		0.23212193685036073 		0.7213661792128767  0.6283268940315309 		Uiso   ? 		N 		-0.26216
N 1.0  		-0.11842148210449976 		0.8111689076455001  0.8367792554545506 		Uiso   ? 		N 		-0.26216
N 1.0  		0.40060938923894895 		1.0557954656983022  0.626205601344051 		Uiso   ? 		N 		-0.26216
N 1.0  		0.049309439369236874 		0.1445185984885661  0.8290011822671245 		Uiso   ? 		N 		-0.26216
N 1.0  		0.5655603432267059 		0.38571007949749736  0.616730494006641 		Uiso   ? 		N 		-0.26216
N 1.0  		0.21162587913742098 		0.4772303464520562  0.8329609286170868 		Uiso   ? 		N 		-0.26216
N 1.0  		0.7317761424105338 		0.721120816566886  0.6298825086690161 		Uiso   ? 		N 		-0.26216
N 1.0  		0.3850182007352843 		0.8150947099813525  0.8386177091170331 		Uiso   ? 		N 		-0.26216
N 1.0  		0.9009010653161107 		1.0555501030523113  0.6298825086690161 		Uiso   ? 		N 		-0.26216
N 1.0  		0.5526417165498764 		0.14525468642653844  0.8291426017796232 		Uiso   ? 		N 		-0.26216
N 1.0  		1.0672913070650059 		0.3879183433114143  0.617579011081633 		Uiso   ? 		N 		-0.26216
N 1.0  		0.7139197771789971 		0.4767396211600746  0.8336680261795801 		Uiso   ? 		N 		-0.26216
N 1.0  		0.43449351236471845 		0.1800961821572284  0.6597220258062326 		Uiso   ? 		N 		-0.26815
N 1.0  		0.3802894622920235 		0.10526057513004221  0.8763767189541745 		Uiso   ? 		N 		-0.26815
N 1.0  		0.5983302526846415 		0.5132986554127  0.6551966014062757 		Uiso   ? 		N 		-0.26815
N 1.0  		0.5468140385385181 		0.4357640592796153  0.868315806741751 		Uiso   ? 		N 		-0.26815
N 1.0  		0.7685921627655783 		0.8504269310040241  0.6690557136311439 		Uiso   ? 		N 		-0.26815
N 1.0  		0.7132182561720912 		0.7724016095789578  0.8751039433416865 		Uiso   ? 		N 		-0.26815
N 1.0  		0.9308288879582198 		0.1778879183433114  0.6577421526312515 		Uiso   ? 		N 		-0.26815
N 1.0  		-0.12250395240792397 		0.10305231131612523  0.8766595579791717 		Uiso   ? 		N 		-0.26815
N 1.0  		1.1006898894170818 		0.5137893807046815  0.6564693770187636 		Uiso   ? 		N 		-0.26815
N 1.0  		0.045043728877897565 		0.4377269604475415  0.8755282018791825 		Uiso   ? 		N 		-0.26815
N 1.0  		0.2689532313051415 		0.8477279418981255  0.6631160941062004 		Uiso   ? 		N 		-0.26815
N 1.0  		0.20938646233308034 		0.7689665325350868  0.8758110409041797 		Uiso   ? 		N 		-0.26815
N 1.0  		0.517543440137142 		0.24462655805280206  0.910741660491348 		Uiso   ? 		N 		-0.46874
N 1.0  		0.4310178997287427 		0.33123957208754545  0.6997437478433525 		Uiso   ? 		N 		-0.46874
N 1.0  		0.6843309711470941 		0.5790558445382276  0.9104588214663506 		Uiso   ? 		N 		-0.46874
N 1.0  		0.6007562214287239 		0.6668956718029247  0.6899858014809451 		Uiso   ? 		N 		-0.46874
N 1.0  		0.8569784165688243 		0.9137304936696439  0.9277120019911866 		Uiso   ? 		N 		-0.46874
N 1.0  		0.7689807190538547 		0.997399155952498  0.7032792356558188 		Uiso   ? 		N 		-0.46874
N 1.0  		1.0172305150427474 		0.24487192069879282  0.9166812800162916 		Uiso   ? 		N 		-0.46874
N 1.0  		0.9281944383887142 		0.3273137697516931  0.7018650405308323 		Uiso   ? 		N 		-0.46874
N 1.0  		0.18760348455436582 		0.5817548336441261  0.9100345629288547 		Uiso   ? 		N 		-0.46874
N 1.0  		1.1041454396773798 		0.6668956718029247  0.6912585770934331 		Uiso   ? 		N 		-0.46874
N 1.0  		0.35484886525440923 		0.9166748454215331  0.9288433580911759 		Uiso   ? 		N 		-0.46874
N 1.0  		0.27027508221929625 		0.9991166944744333  0.7066733039557866 		Uiso   ? 		N 		-0.46874
N 1.0  		0.5995436916926385 		1.0405829816468741  0.5361213718824068 		Uiso   ? 		N 		-0.46976
N 1.0  		-0.03888850964325302 		-0.03017960545686525  0.7507961918553675 		Uiso   ? 		N 		-0.46976
N 1.0  		0.7664158548542092 		0.3722151339680047  0.552950293869747 		Uiso   ? 		N 		-0.46976
N 1.0  		0.12701619133194877 		0.3037589557365787  0.7441494747679306 		Uiso   ? 		N 		-0.46976
N 1.0  		0.9410743198632019 		0.7083619589753657  0.5416367328698545 		Uiso   ? 		N 		-0.46976
N 1.0  		0.29600963685579695 		0.636225341054078  0.7524932260053513 		Uiso   ? 		N 		-0.46976
N 1.0  		1.1020741516291286 		1.0388654431249387  0.534000079194927 		Uiso   ? 		N 		-0.46976
N 1.0  		0.4666015386061139 		-0.028952792226911377  0.7500890942928742 		Uiso   ? 		N 		-0.46976
N 1.0  		0.27042212566880675 		0.3700068701540878  0.5475763523947981 		Uiso   ? 		N 		-0.46976
N 1.0  		0.6283286513024782 		0.3013053292766709  0.7523518064928527 		Uiso   ? 		N 		-0.46976
N 1.0  		0.44093819289035313 		0.7093434095593287  0.5372527279823961 		Uiso   ? 		N 		-0.46976
N 1.0  		-0.20179789584427477 		0.6354892531161056  0.7611198162677694 		Uiso   ? 		N 		-0.46976
N 1.0  		0.9336266780078732 		0.410000981450584  0.5760016744070281 		Uiso   ? 		N 		-0.47011
N 1.0  		0.30359417731380794 		0.3449798802630288  0.7836055187550558 		Uiso   ? 		N 		-0.47011
N 1.0  		1.1040594112928597 		0.744920993227991  0.5610112060821704 		Uiso   ? 		N 		-0.47011
N 1.0  		0.46802672118243943 		0.6759740897045834  0.7833226797300584 		Uiso   ? 		N 		-0.47011
N 1.0  		0.27009924342132724 		1.0773873785454904  0.5703448939070818 		Uiso   ? 		N 		-0.47011
N 1.0  		0.6366164009683422 		0.011041319069584847  0.7696049870176888 		Uiso   ? 		N 		-0.47011
N 1.0  		0.4331553811038143 		0.4107370693885563  0.5734561231820522 		Uiso   ? 		N 		-0.47011
N 1.0  		-0.1980951195562118 		0.3449798802630288  0.7845954553425464 		Uiso   ? 		N 		-0.47011
N 1.0  		0.6049528658362264 		0.7454117185199726  0.5629910792571515 		Uiso   ? 		N 		-0.47011
N 1.0  		-0.029158615100380147 		0.6781823535185003  0.7746960894676403 		Uiso   ? 		N 		-0.47011
N 1.0  		0.7671706975681138 		1.076651290607518  0.5747288987945401 		Uiso   ? 		N 		-0.47011
N 1.0  		0.13928431320405732 		0.014231033467464915  0.7714434406801713 		Uiso   ? 		N 		-0.47011
N 1.0  		0.2358295827483205 		0.6688585729708509  0.6329937379439866 		Uiso   ? 		N 		-0.46922
N 1.0  		-0.11166443748021415 		0.7613602905093729  0.8434259725419875 		Uiso   ? 		N 		-0.46922
N 1.0  		0.4047420154815679 		1.0032878594562766  0.627478376956539 		Uiso   ? 		N 		-0.46922
N 1.0  		0.056278974165851925 		0.09470998135243891  0.8363549969170546 		Uiso   ? 		N 		-0.46922
N 1.0  		0.5704202503997621 		0.33295711060948086  0.6198417232816115 		Uiso   ? 		N 		-0.46922
N 1.0  		0.21727880593177873 		0.42521346550201206  0.8381934505795371 		Uiso   ? 		N 		-0.46922
N 1.0  		0.7341102392382199 		0.6671410344489155  0.6283268940315309 		Uiso   ? 		N 		-0.46922
N 1.0  		0.3884564153928981 		0.7633231916772991  0.8449815871794727 		Uiso   ? 		N 		-0.46922
N 1.0  		0.9043962210417409 		1.0030424968102858  0.632003801356496 		Uiso   ? 		N 		-0.46922
N 1.0  		0.5600691010365827 		0.09593679458239279  0.8363549969170546 		Uiso   ? 		N 		-0.46922
N 1.0  		1.070753593445204 		0.33492001177740705  0.616730494006641 		Uiso   ? 		N 		-0.46922
N 1.0  		-0.28313554990426393 		0.42521346550201206  0.8438502310794834 		Uiso   ? 		N 		-0.46922
N 1.0  		0.4410256498328088 		1.1294042594955345  0.6650959672811816 		Uiso   ? 		N 		-0.47041
N 1.0  		0.38323695791411383 		0.05250760624202572  0.8690229043042442 		Uiso   ? 		N 		-0.47041
N 1.0  		0.6015231078244935 		0.46103641181666505  0.6578835721437502 		Uiso   ? 		N 		-0.47041
N 1.0  		0.5504406716458772 		0.3852193542055158  1.8602322674073277 		Uiso   ? 		N 		-0.47041
N 1.0  		0.769773998318168 		0.7966925115320443  0.6734397185186023 		Uiso   ? 		N 		-0.47041
N 1.0  		0.7198854903829282 		0.7228383550888213  0.8642146408792899 		Uiso   ? 		N 		-0.47041
N 1.0  		0.941808044945494 		1.1301403474335068  0.6649545477686829 		Uiso   ? 		N 		-0.47041
N 1.0  		-0.11946664637238495 		0.05005397978211797  0.8667601921042657 		Uiso   ? 		N 		-0.47041
N 1.0  		1.1033110127308097 		0.4625085876926097  0.6632575136186991 		Uiso   ? 		N 		-0.47041
N 1.0  		0.04817084532688523 		0.3844832662675434  0.8702956799167322 		Uiso   ? 		N 		-0.47041
N 1.0  		0.2698656356173852 		0.7947296103641182  0.6707527477811279 		Uiso   ? 		N 		-0.47041
N 1.0  		0.21751705602763957 		0.7206300912749043  0.867891548204255 		Uiso   ? 		N 		-0.47041
N 1.0  		0.567763449633653 		0.3535675728727059  0.9067819141413855 		Uiso   ? 		N 		-0.44014
N 1.0  		0.4795532619463537 		0.43723623515556  0.7137442795807194 		Uiso   ? 		N 		-0.44014
N 1.0  		0.7334227910910929 		0.6870154087741682  0.9046606214539058 		Uiso   ? 		N 		-0.44014
N 1.0  		0.6466912369872526 		0.7689665325350868  0.7087945966432664 		Uiso   ? 		N 		-0.44014
N 1.0  		0.9018509812657054 		1.0158013544018059  1.905910769944394 		Uiso   ? 		N 		-0.44014
N 1.0  		0.8181623494113022 		1.1051133575424477  0.7164312503181939 		Uiso   ? 		N 		-0.44014
N 1.0  		0.06962954462521868 		0.3543036608106782  0.9195096702662646 		Uiso   ? 		N 		-0.44014
N 1.0  		0.9793870883334241 		0.4365001472175876  0.7114815673807409 		Uiso   ? 		N 		-0.44014
N 1.0  		0.2374883241196663 		0.6904504858180391  0.9070647531663829 		Uiso   ? 		N 		-0.44014
N 1.0  		1.1473926193093371 		0.7716655216409855  0.7063904649307893 		Uiso   ? 		N 		-0.44014
N 1.0  		0.4003589004682788 		1.0187457061536953  0.9079132702413748 		Uiso   ? 		N 		-0.44014
N 1.0  		0.3172989415080164 		1.1063401707724019  0.7184111234931752 		Uiso   ? 		N 		-0.44014
N 1.0  		0.6496205690687021 		0.14967121405437236  0.5289089767449754 		Uiso   ? 		N 		-0.43666
N 1.0  		0.006728931229761117 		0.07508096967317696  0.7352400454805152 		Uiso   ? 		N 		-0.43666
N 1.0  		0.8173214783128773 		0.47870252232800087  0.5378184060323907 		Uiso   ? 		N 		-0.43666
N 1.0  		0.1768024228609527 		0.4109824320345471  0.7408968259804615 		Uiso   ? 		N 		-0.43666
N 1.0  		0.9833488590469599 		0.8128864461674356  0.5221208401450399 		Uiso   ? 		N 		-0.43666
N 1.0  		0.34677730645584776 		0.7454117185199726  0.747260704042901 		Uiso   ? 		N 		-0.43666
N 1.0  		1.1502145457316422 		0.14918048876239082  0.5306060108949592 		Uiso   ? 		N 		-0.43666
N 1.0  		0.5109111690997187 		0.07581705761114928  0.7339672698680274 		Uiso   ? 		N 		-0.43666
N 1.0  		0.3185653768871909 		0.47649425851408383  0.5352728548074149 		Uiso   ? 		N 		-0.43666
N 1.0  		0.6784829221081246 		0.40926489351261164  0.7434423772054373 		Uiso   ? 		N 		-0.43666
N 1.0  		0.48534643142025446 		0.815585435273334  0.5209894840450506 		Uiso   ? 		N 		-0.43666
N 1.0  		-0.15529762493651034 		0.7412405535381293  0.746412186967909 		Uiso   ? 		N 		-0.43666
N 1.0  		0.9812639360909977 		0.5184512709785063  0.5812341963694784 		Uiso   ? 		N 		-0.43704
N 1.0  		0.34595620576505537 		0.44287957601334776  0.8086367724673179 		Uiso   ? 		N 		-0.43704
N 1.0  		1.1431378002688268 		0.8477279418981255  0.5785472256320039 		Uiso   ? 		N 		-0.43704
N 1.0  		0.5169958613675574 		0.7836882912945333  0.7929392065799671 		Uiso   ? 		N 		-0.43704
N 1.0  		0.31783872890176595 		0.18647561095298854  0.5801028402694891 		Uiso   ? 		N 		-0.43704
N 1.0  		0.6780474559396706 		0.11090391598783003  0.7930806260924657 		Uiso   ? 		N 		-0.43704
N 1.0  		0.4821814623569487 		0.5177151830405339  0.5810927768569796 		Uiso   ? 		N 		-0.43704
N 1.0  		-0.1505323977867997 		0.4507311806850525  0.7994445041549052 		Uiso   ? 		N 		-0.43704
N 1.0  		0.6401647647419821 		0.84601040337619  0.5833554890569581 		Uiso   ? 		N 		-0.43704
N 1.0  		0.018329570355319735 		0.7812346648346257  0.7973232114674255 		Uiso   ? 		N 		-0.43704
N 1.0  		0.8168466663221027 		0.18451270978506235  0.5815170353944756 		Uiso   ? 		N 		-0.43704
N 1.0  		0.17370966896539988 		0.10943174011188538  0.8015657968423852 		Uiso   ? 		N 		-0.43704
N 1.0  		0.28610653331284785 		0.7770634998527824  0.6254985037815578 		Uiso   ? 		N 		-0.43955
N 1.0  		-0.07302862409460181 		0.8607321621356365  0.8188189773672212 		Uiso   ? 		N 		-0.43955
N 1.0  		0.44955478199456167 		0.10992246540386692  0.613902103756668 		Uiso   ? 		N 		-0.43955
N 1.0  		0.09799705562322225 		0.1972715673765826  0.8166976846797415 		Uiso   ? 		N 		-0.43955
N 1.0  		0.6181801882417672 		0.4416527627833939  0.612205069606684 		Uiso   ? 		N 		-0.43955
N 1.0  		0.2628481033596243 		0.532927667091962  0.827162728604642 		Uiso   ? 		N 		-0.43955
N 1.0  		0.7838154579766231 		0.7763274119148101  0.6240843086565713 		Uiso   ? 		N 		-0.43955
N 1.0  		0.43326324139891476 		0.8644126018254982  0.8220716261546903 		Uiso   ? 		N 		-0.43955
N 1.0  		0.9519713597950188 		0.10967710275787615  0.6202659818191075 		Uiso   ? 		N 		-0.43955
N 1.0  		0.6004377051462636 		0.19579939150063796  0.8138692944297682 		Uiso   ? 		N 		-0.43955
N 1.0  		1.1202222502886934 		0.4453332024732555  0.617154752544137 		Uiso   ? 		N 		-0.43955
N 1.0  		-0.23568023379399622 		0.5277750515261557  0.820940270054701 		Uiso   ? 		N 		-0.43955
N 1.0  		0.4846861550707063 		0.23628422808911573  0.6519439526188066 		Uiso   ? 		N 		-0.43911
N 1.0  		0.4347647777900342 		0.1619393463539111  0.8782151726166569 		Uiso   ? 		N 		-0.43911
N 1.0  		0.6513181369763453 		0.5699774266365689  0.6594391867812354 		Uiso   ? 		N 		-0.43911
N 1.0  		0.6000384847251358 		0.49121601727353026  0.876942397004169 		Uiso   ? 		N 		-0.43911
N 1.0  		0.8218823476430603 		0.9068603395819022  0.66947997216864 		Uiso   ? 		N 		-0.43911
N 1.0  		-0.23792612707522542 		0.8241731278830111  0.887266021416571 		Uiso   ? 		N 		-0.43911
N 1.0  		0.9816590011811963 		0.23407596427519875  0.6488327233438361 		Uiso   ? 		N 		-0.43911
N 1.0  		-0.07105396391365473 		0.15580528020414175  0.882740597016614 		Uiso   ? 		N 		-0.43911
N 1.0  		1.1528935517103323 		0.5714496025125135  0.6592977672687367 		Uiso   ? 		N 		-0.43911
N 1.0  		0.09717285485743549 		0.492688193149475  0.8749625238291879 		Uiso   ? 		N 		-0.43911
N 1.0  		0.32093560580321423 		0.903670625184022  0.6658030648436749 		Uiso   ? 		N 		-0.43911
N 1.0  		0.26036332703752196 		0.8241731278830111  0.8845790506790965 		Uiso   ? 		N 		-0.43911
N 1.0  		0.624483051545901 		0.3565119246245952  0.9029635873039218 		Uiso   ? 		N 		-0.41792
N 1.0  		0.5358326094142063 		0.44312493865933855  0.7041277527308109 		Uiso   ? 		N 		-0.41792
N 1.0  		0.7885980207290177 		0.6906958484640299  0.9110244995163453 		Uiso   ? 		N 		-0.41792
N 1.0  		0.7023483880378529 		0.7719108842869762  0.7126129234807301 		Uiso   ? 		N 		-0.41792
N 1.0  		0.9589233483548597 		1.0224261458435568  0.910317401953852 		Uiso   ? 		N 		-0.41792
N 1.0  		0.8729607421497367 		1.1063401707724019  0.7184111234931752 		Uiso   ? 		N 		-0.41792
N 1.0  		0.12058784016198515 		0.3584748257925214  0.9035292653539165 		Uiso   ? 		N 		-0.41792
N 1.0  		1.0346521283847976 		0.4399352242614585  0.7035620746808161 		Uiso   ? 		N 		-0.41792
N 1.0  		0.29303159303423376 		0.694867013445873  0.9124386946413319 		Uiso   ? 		N 		-0.41792
N 1.0  		0.20365154882614242 		0.7753459613308471  0.7104916307932504 		Uiso   ? 		N 		-0.41792
N 1.0  		0.45528877058844197 		1.0219354205515754  0.9072061726788816 		Uiso   ? 		N 		-0.41792
N 1.0  		0.3747874913189816 		1.1112474236922172  0.7181282844681778 		Uiso   ? 		N 		-0.41792
N 1.0  		0.705604092427665 		0.151143389930317  0.5283432986949808 		Uiso   ? 		N 		-0.41883
N 1.0  		0.06387351348666823 		0.07802532142506625  0.7342501088930247 		Uiso   ? 		N 		-0.41883
N 1.0  		0.8743762501563357 		0.4818922367258809  0.539798279207372 		Uiso   ? 		N 		-0.41883
N 1.0  		0.23219014267120708 		0.4146628717244087  0.7471192845304024 		Uiso   ? 		N 		-0.41883
N 1.0  		1.0378866181678963 		0.8165668858572971  0.5139185084201178 		Uiso   ? 		N 		-0.41883
N 1.0  		0.4029821176099881 		0.7486014329178526  0.751786128442858 		Uiso   ? 		N 		-0.41883
N 1.0  		1.2075146770928622 		0.15286092845225244  0.5314545279699512 		Uiso   ? 		N 		-0.41883
N 1.0  		0.5694140263271632 		0.08317793699087252  0.7359471430430085 		Uiso   ? 		N 		-0.41883
N 1.0  		0.37538358683573547 		0.4809107861419178  0.5369698889573988 		Uiso   ? 		N 		-0.41883
N 1.0  		0.7325540339161216 		0.4107370693885563  0.747684962580397 		Uiso   ? 		N 		-0.41883
N 1.0  		0.5411262622297357 		0.8187751496712141  0.5163226401325949 		Uiso   ? 		N 		-0.41883
N 1.0  		-0.09673782664104941 		0.7478653449798803  0.7506547723428688 		Uiso   ? 		N 		-0.41883
N 1.0  		1.0378696558672127 		0.5228677986063401  0.5786886451445025 		Uiso   ? 		N 		-0.41828
N 1.0  		0.4038961287892235 		0.45293944449896956  0.8067983188048354 		Uiso   ? 		N 		-0.41828
N 1.0  		1.2006592194252244 		0.8531259201099225  0.5870323963819232 		Uiso   ? 		N 		-0.41828
N 1.0  		0.5729312412813518 		0.7876140936303858  0.7884137821800101 		Uiso   ? 		N 		-0.41828
N 1.0  		0.3721223308820926 		0.18794778682893318  0.5883051719944111 		Uiso   ? 		N 		-0.41828
N 1.0  		0.736280881926769 		0.11900088330552558  0.7953433382924442 		Uiso   ? 		N 		-0.41828
N 1.0  		0.537691861926084 		0.5216409853763864  0.5776987085570119 		Uiso   ? 		N 		-0.41828
N 1.0  		-0.09347762594334122 		0.45392089508293265  0.8029799919673717 		Uiso   ? 		N 		-0.41828
N 1.0  		0.6969019618999259 		0.8523898321719503  0.5907093037068882 		Uiso   ? 		N 		-0.41828
N 1.0  		0.07523111424042456 		0.7900677200902936  0.7877066846175168 		Uiso   ? 		N 		-0.41828
N 1.0  		0.871097398956997 		0.18549416036902544  0.5884465915069097 		Uiso   ? 		N 		-0.41828
N 1.0  		0.2335138600953652 		0.12194523505741486  0.8018486358673824 		Uiso   ? 		N 		-0.41828
N 1.0  		0.33971331895386525 		0.7827068407105703  0.6376605818564423 		Uiso   ? 		N 		-0.41692
N 1.0  		-0.013978106763617326 		0.8683384041613506  0.8179704602922293 		Uiso   ? 		N 		-0.41692
N 1.0  		0.5026773250769442 		0.10992246540386692  0.6045684159317567 		Uiso   ? 		N 		-0.41692
N 1.0  		0.1550036840215121 		0.20291490823437042  0.8130207773547763 		Uiso   ? 		N 		-0.41692
N 1.0  		0.6728734964670166 		0.44606929041122784  0.6232357915815793 		Uiso   ? 		N 		-0.41692
N 1.0  		0.3213092936187886 		0.5380802826577682  0.8281526651921326 		Uiso   ? 		N 		-0.41692
N 1.0  		0.8397749096130016 		0.7790264010207086  0.6284683135440295 		Uiso   ? 		N 		-0.41692
N 1.0  		0.48929722934900566 		0.8698105800372952  1.8204933843952051 		Uiso   ? 		N 		-0.41692
N 1.0  		1.0065003212931072 		0.11164000392580235  0.6129121671691773 		Uiso   ? 		N 		-0.41692
N 1.0  		0.6576086802717144 		0.2038963588183335  1.8168164770702402 		Uiso   ? 		N 		-0.41692
N 1.0  		1.1765168718562822 		0.4482775542251448  0.6222458549940887 		Uiso   ? 		N 		-0.41692
N 1.0  		-0.17933514763527925 		0.5346452056138974  0.8251828554296607 		Uiso   ? 		N 		-0.41692
N 1.0  		0.5424858030902978 		0.24266365688487587  0.6526510501812999 		Uiso   ? 		N 		-0.41773
N 1.0  		0.49053581097666754 		0.16341152222985575  0.8746796848041904 		Uiso   ? 		N 		-0.41773
N 1.0  		0.7072206475447075 		0.5734125036804398  0.6662273233811709 		Uiso   ? 		N 		-0.41773
N 1.0  		0.6572335315731709 		0.498086171361272  0.8661945140542712 		Uiso   ? 		N 		-0.41773
N 1.0  		0.8770487796581374 		0.9088232407498283  0.67683378681857 		Uiso   ? 		N 		-0.41773
N 1.0  		-0.18015055077821812 		0.8317793699087251  0.8848618897040937 		Uiso   ? 		N 		-0.41773
N 1.0  		1.0399164988908791 		0.24094611836294044  0.6478427867563455 		Uiso   ? 		N 		-0.41773
N 1.0  		-0.014783414068650053 		0.15997644518598492  0.8772252360291665 		Uiso   ? 		N 		-0.41773
N 1.0  		0.20613595184624406 		0.5729217783884581  0.6672172599686614 		Uiso   ? 		N 		-0.41773
N 1.0  		0.15232401277277602 		0.49759544606929046  0.8660530945417725 		Uiso   ? 		N 		-0.41773
N 1.0  		0.37714041695735456 		0.9068603395819022  0.6718841038811172 		Uiso   ? 		N 		-0.41773
N 1.0  		0.3177051253670222 		0.8300618313867898  0.884013372629102 		Uiso   ? 		N 		-0.41773
N 1.0  		0.5698432756617403 		0.1847580724310531  0.905367719016399 		Uiso   ? 		N 		-0.46294
N 1.0  		0.48612825093879347 		0.26891746000588873  0.7014407819933364 		Uiso   ? 		N 		-0.46294
N 1.0  		0.7391390217713667 		0.5169790951025617  0.9151256653788064 		Uiso   ? 		N 		-0.46294
N 1.0  		0.651616769192184 		0.604573559721268  0.7044105917558081 		Uiso   ? 		N 		-0.46294
N 1.0  		0.9068575262612377 		0.849445480420061  0.919368250753766 		Uiso   ? 		N 		-0.46294
N 1.0  		0.8191621293320462 		0.9328687800569242  0.7113401478682423 		Uiso   ? 		N 		-0.46294
N 1.0  		0.06937197875768132 		0.18549416036902544  0.9086203678038681 		Uiso   ? 		N 		-0.46294
N 1.0  		0.984016796429466 		0.26769064677593485  0.6981881332058673 		Uiso   ? 		N 		-0.46294
N 1.0  		0.23803905197316697 		0.5194327215624693  0.9121558556163346 		Uiso   ? 		N 		-0.46294
N 1.0  		0.15218153028122902 		0.6001570320934342  0.7029963966308216 		Uiso   ? 		N 		-0.46294
N 1.0  		0.41023744532765394 		0.8553341839238395  0.9262978068662001 		Uiso   ? 		N 		-0.46294
N 1.0  		0.31909174105006194 		0.9348316812248504  0.7145927966557114 		Uiso   ? 		N 		-0.46294
N 1.0  		0.820831794479255 		0.31062910982432035  0.5495562255697792 		Uiso   ? 		N 		-0.46666
N 1.0  		0.1785054119895497 		0.23971930513298656  0.7448565723304239 		Uiso   ? 		N 		-0.46666
N 1.0  		0.9918362595903655 		0.6445676710177642  0.5332929816324337 		Uiso   ? 		N 		-0.46666
N 1.0  		0.34768727596314314 		0.5734125036804398  0.7598470406552815 		Uiso   ? 		N 		-0.46666
N 1.0  		1.1553859734242466 		0.9750711551673374  0.534000079194927 		Uiso   ? 		N 		-0.46666
N 1.0  		0.5191255190417605 		0.9090686033958191  0.746412186967909 		Uiso   ? 		N 		-0.46666
N 1.0  		0.321324340400547 		0.30989302188634804  0.5522431963072537 		Uiso   ? 		N 		-0.46666
N 1.0  		0.6820918463107988 		0.24266365688487587  0.7533417430803433 		Uiso   ? 		N 		-0.46666
N 1.0  		0.49272971413373223 		0.6450583963097458  0.5328687230949377 		Uiso   ? 		N 		-0.46666
N 1.0  		-0.1491235445661454 		0.5716949651585044  0.7568772308928097 		Uiso   ? 		N 		-0.46666
N 1.0  		0.6539596313176844 		0.9789969575031898  0.5332929816324337 		Uiso   ? 		N 		-0.46666
N 1.0  		0.01625109155121235 		0.9088232407498283  0.7478263820928956 		Uiso   ? 		N 		-0.46666
N 1.0  		0.982721565701833 		0.34669741878496424  0.5713348304945723 		Uiso   ? 		N 		-0.46403
N 1.0  		0.35120163380146086 		0.28167631759740897  0.7922321090174739 		Uiso   ? 		N 		-0.46403
N 1.0  		1.1536778873677749 		0.6830896064383158  0.5767087719695213 		Uiso   ? 		N 		-0.46403
N 1.0  		0.5173910401167451 		0.6119344391009913  0.7942119821924549 		Uiso   ? 		N 		-0.46403
N 1.0  		0.3173386606323376 		1.013347727941898  0.5856182012569366 		Uiso   ? 		N 		-0.46403
N 1.0  		0.6891111314195741 		-0.052262243596034944  0.7860096504675329 		Uiso   ? 		N 		-0.46403
N 1.0  		0.4850367127606421 		0.34620669349298266  0.5700620548820844 		Uiso   ? 		N 		-0.46403
N 1.0  		-0.14970344107010514 		0.28069486701344587  0.7981717285424174 		Uiso   ? 		N 		-0.46403
N 1.0  		0.6543917210842443 		0.6840710570222789  0.5795371622194944 		Uiso   ? 		N 		-0.46403
N 1.0  		0.022363474902653058 		0.6146334282068898  0.7830398407050612 		Uiso   ? 		N 		-0.46403
N 1.0  		0.814532794538005 		1.0128570026499166  0.5870323963819232 		Uiso   ? 		N 		-0.46403
N 1.0  		0.18954025979596117 		-0.04760035332221023  0.7885552016925087 		Uiso   ? 		N 		-0.46403
N 1.0  		0.4523166026237886 		0.9394935714986752  0.6197003037691128 		Uiso   ? 		N 		-0.46593
N 1.0  		0.10593679606308785 		0.028707429580920606  0.8261727920171513 		Uiso   ? 		N 		-0.46593
N 1.0  		0.6175457854747395 		0.2703896358818334  0.617154752544137 		Uiso   ? 		N 		-0.46593
N 1.0  		0.26882496765739616 		0.36043772696044757  0.8340922847170761 		Uiso   ? 		N 		-0.46593
N 1.0  		0.7867211729714443 		0.6087447247031113  0.6204074013316061 		Uiso   ? 		N 		-0.46593
N 1.0  		0.43848227656677663 		0.6980567278437532  0.8373449335045453 		Uiso   ? 		N 		-0.46593
N 1.0  		0.955223899459769 		0.9402296594366474  0.6225286940190861 		Uiso   ? 		N 		-0.46593
N 1.0  		0.6074311980064738 		0.03214250662479145  0.8198089139547118 		Uiso   ? 		N 		-0.46593
N 1.0  		1.1231673111058353 		0.2735793502797134  0.6102251964317029 		Uiso   ? 		N 		-0.46593
N 1.0  		-0.230075564103796 		0.36559034252625383  0.8287183432421272 		Uiso   ? 		N 		-0.46593
N 1.0  		0.2889465096168048 		0.6084993620571205  0.6242257281690698 		Uiso   ? 		N 		-0.46593
N 1.0  		-0.0622431774778921 		0.6965845519678084  0.8301325383671138 		Uiso   ? 		N 		-0.46593
N 1.0  		0.9939852007112114 		1.070026499165767  0.6638231916686936 		Uiso   ? 		N 		-0.46515
N 1.0  		-0.06458405943440003 		-0.009323780547649426  0.8636489628292954 		Uiso   ? 		N 		-0.46515
N 1.0  		0.6565043027987749 		0.40313082736284234  0.6656616453311762 		Uiso   ? 		N 		-0.46515
N 1.0  		0.6049552193072194 		0.32510550593777604  0.8603963140418261 		Uiso   ? 		N 		-0.46515
N 1.0  		0.8228492582183722 		0.734125036804397  0.6713184258311224 		Uiso   ? 		N 		-0.46515
N 1.0  		-0.22765547121662338 		0.6602708803611739  0.8690229043042442 		Uiso   ? 		N 		-0.46515
N 1.0  		0.4920417467005822 		1.0678182353518502  0.6608533819062219 		Uiso   ? 		N 		-0.46515
N 1.0  		0.43481598898516344 		-0.01177740700755717  0.8642146408792899 		Uiso   ? 		N 		-0.46515
N 1.0  		1.1562635928721332 		0.3996957503189715  0.6679243575311548 		Uiso   ? 		N 		-0.46515
N 1.0  		0.10173682426261291 		0.3228972421238591  0.8663359335667699 		Uiso   ? 		N 		-0.46515
N 1.0  		0.3218303012107733 		0.7346157620963786  0.6762681087685755 		Uiso   ? 		N 		-0.46515
N 1.0  		0.27060111355069166 		0.6597801550691923  0.868740065279247 		Uiso   ? 		N 		-0.46515
N 1.0  		0.737345994911343 		0.463244675630582  0.906216236091391 		Uiso   ? 		N 		-0.43965
N 1.0  		0.6469298927101478 		0.5488762390813623  0.7150170551932074 		Uiso   ? 		N 		-0.43965
N 1.0  		0.8964181410265677 		0.7966925115320443  1.9012439260319383 		Uiso   ? 		N 		-0.43965
N 1.0  		0.8127512597487894 		0.8783982726469723  0.7236436454556254 		Uiso   ? 		N 		-0.43965
N 1.0  		0.06663038317204296 		0.1302875650211012  1.900112569931949 		Uiso   ? 		N 		-0.43965
N 1.0  		0.9831964100176414 		0.21420158994994604  0.7079460795682746 		Uiso   ? 		N 		-0.43965
N 1.0  		0.23340911655914715 		0.4629993129845913  0.9052262995039003 		Uiso   ? 		N 		-0.43965
N 1.0  		1.1460100452982374 		0.5432328982235745  0.7096431137182584 		Uiso   ? 		N 		-0.43965
N 1.0  		0.4039251837806936 		0.8023358523898323  0.9110244995163453 		Uiso   ? 		N 		-0.43965
N 1.0  		0.3134081523972425 		0.8801158111689078  0.7232193869181294 		Uiso   ? 		N 		-0.43965
N 1.0  		0.5637259090414138 		0.128324663853175  0.8965997092414822 		Uiso   ? 		N 		-0.43965
N 1.0  		0.48332971428513866 		0.21444695259593682  0.7119058259182369 		Uiso   ? 		N 		-0.43965
N 1.0  		0.8177966959306863 		0.2573854156443223  0.5371113084698974 		Uiso   ? 		N 		-0.44090
N 1.0  		0.1756499342678784 		0.185984885661007  0.7345329479180219 		Uiso   ? 		N 		-0.44090
N 1.0  		0.9853179843479641 		0.5869074492099323  0.5277776206449861 		Uiso   ? 		N 		-0.44090
N 1.0  		0.3455262098264769 		0.5189419962704879  0.752210386980354 		Uiso   ? 		N 		-0.44090
N 1.0  		1.1494810969762497 		0.9186377465894594  0.5273533621074902 		Uiso   ? 		N 		-0.44090
N 1.0  		0.5107693685621058 		0.8541073706938856  0.7358057235305099 		Uiso   ? 		N 		-0.44090
N 1.0  		0.31712818295403417 		0.25517715183040535  0.5416367328698545 		Uiso   ? 		N 		-0.44090
N 1.0  		0.6796789441794823 		0.19236431445676713  0.7380684357304884 		Uiso   ? 		N 		-0.44090
N 1.0  		0.4843559684083817 		0.5866620865639416  0.5239592938075224 		Uiso   ? 		N 		-0.44090
N 1.0  		-0.15448076091060242 		0.515506919226617  0.748109221117893 		Uiso   ? 		N 		-0.44090
N 1.0  		0.6522804865936938 		0.9237903621552656  0.5266462645449969 		Uiso   ? 		N 		-0.44090
N 1.0  		0.01111516300193266 		0.8543527333398765  0.7404725674429655 		Uiso   ? 		N 		-0.44090
N 1.0  		1.146294377336319 		0.6283737363823731  0.5891536890694031 		Uiso   ? 		N 		-0.44000
N 1.0  		0.513153215701952 		0.5550103052311317  0.7920906895049752 		Uiso   ? 		N 		-0.44000
N 1.0  		0.3127656662863343 		0.9561782314260477  0.5884465915069097 		Uiso   ? 		N 		-0.44000
N 1.0  		0.6846243281260018 		0.8911571302384926  0.7927977870674684 		Uiso   ? 		N 		-0.44000
N 1.0  		0.4831538754871697 		0.29271763666699385  0.5762845134320254 		Uiso   ? 		N 		-0.44000
N 1.0  		-0.15439911517498936 		0.2232800078516047  0.8026971529423744 		Uiso   ? 		N 		-0.44000
N 1.0  		0.6483312955319342 		0.6269015605064286  0.5843454256444487 		Uiso   ? 		N 		-0.44000
N 1.0  		0.019352448076668582 		0.5601629207969379  0.7926563675549698 		Uiso   ? 		N 		-0.44000
N 1.0  		0.8092084475389802 		0.9571596820100108  0.5953761476193439 		Uiso   ? 		N 		-0.44000
N 1.0  		0.18591221481455478 		0.8975365590342527  0.7959090163424389 		Uiso   ? 		N 		-0.44000
N 1.0  		0.9821048718394898 		0.29149082343703997  0.5764259329445239 		Uiso   ? 		N 		-0.44000
N 1.0  		0.3446592868364753 		0.2252429090195309  0.7995859236674039 		Uiso   ? 		N 		-0.44000
N 1.0  		0.4515290855573961 		0.8864952399646678  0.6295996696440188 		Uiso   ? 		N 		-0.44092
N 1.0  		0.09872410923568148 		-0.028216704288939055  0.8179704602922293 		Uiso   ? 		N 		-0.44092
N 1.0  		0.6152291702337601 		0.21518304053390913  0.6127707476566787 		Uiso   ? 		N 		-0.44092
N 1.0  		0.2677920910732419 		0.3069486701344587  0.8249000164046635 		Uiso   ? 		N 		-0.44092
N 1.0  		0.7835545970411468 		0.553538129355187  0.6246499867065658 		Uiso   ? 		N 		-0.44092
N 1.0  		0.43117977932592155 		0.6413779566198842  0.8284355042171299 		Uiso   ? 		N 		-0.44092
N 1.0  		0.9511087548038568 		0.8835508882127786  0.6253570842690591 		Uiso   ? 		N 		-0.44092
N 1.0  		0.5999074129704414 		-0.02625380312101286  0.8155663285797522 		Uiso   ? 		N 		-0.44092
N 1.0  		1.1178341664839624 		0.21616449111787223  0.6137606842441693 		Uiso   ? 		N 		-0.44092
N 1.0  		-0.23510640813989062 		0.30793012071842185  0.8292840212921218 		Uiso   ? 		N 		-0.44092
N 1.0  		0.2873331035836785 		0.5542742172931593  0.6199831427941103 		Uiso   ? 		N 		-0.44092
N 1.0  		-0.06752585750863688 		0.6430954951418196  0.8186775578547225 		Uiso   ? 		N 		-0.44092
N 1.0  		0.6536071581088235 		0.34718814407694576  0.6611362209312192 		Uiso   ? 		N 		-0.43854
N 1.0  		0.5999331728939727 		0.2691628226518795  0.8691643238167429 		Uiso   ? 		N 		-0.43854
N 1.0  		0.8168874407023587 		0.6784277161644912  0.6601462843437287 		Uiso   ? 		N 		-0.43854
N 1.0  		-0.23625698121403993 		0.6048189223672589  0.8790636896916489 		Uiso   ? 		N 		-0.43854
N 1.0  		0.9834624815399813 		1.0128570026499166  0.6557622794562702 		Uiso   ? 		N 		-0.43854
N 1.0  		-0.0700222885694579 		-0.06354892531161056  0.877790914079161 		Uiso   ? 		N 		-0.43854
N 1.0  		1.1517410631172578 		0.3464520561389734  0.6551966014062757 		Uiso   ? 		N 		-0.43854
N 1.0  		0.09731937902092261 		0.266463833545981  0.8712856165042228 		Uiso   ? 		N 		-0.43854
N 1.0  		0.3163592027302832 		0.6798998920404358  0.6656616453311762 		Uiso   ? 		N 		-0.43854
N 1.0  		0.2619250672395629 		0.6016292079693788  0.8753867823666839 		Uiso   ? 		N 		-0.43854
N 1.0  		0.4844610205965331 		1.0101580135440182  0.6533581477437931 		Uiso   ? 		N 		-0.43854
N 1.0  		0.4301467077488229 		-0.06403965060359211  0.8804778848166355 		Uiso   ? 		N 		-0.43854
N 1.0  		0.6821971581419619 		0.46471685150652664  0.9097517239038574 		Uiso   ? 		N 		-0.26529
N 1.0  		0.5956804153564104 		0.5530474040632055  0.7045520112683068 		Uiso   ? 		N 		-0.26529
N 1.0  		0.8476528070499203 		0.7998822259299244  0.9158327629412996 		Uiso   ? 		N 		-0.26529
N 1.0  		0.7616244621539329 		0.8828148002748062  0.7140271186057168 		Uiso   ? 		N 		-0.26529
N 1.0  		1.0155216823822744 		0.13053292766709199  0.9120144361038358 		Uiso   ? 		N 		-0.26529
N 1.0  		0.9294123246956859 		0.21542840317989992  0.7104916307932504 		Uiso   ? 		N 		-0.26529
N 1.0  		0.18154624041100553 		0.4659436647364806  0.9108830800038467 		Uiso   ? 		N 		-0.26529
N 1.0  		1.0958077447064112 		0.5503484149573069  0.7037034941933148 		Uiso   ? 		N 		-0.26529
N 1.0  		0.3519308302508232 		0.8033173029737953  0.9217723824662432 		Uiso   ? 		N 		-0.26529
N 1.0  		0.2625836553881641 		0.8842869761507509  0.7116229868932396 		Uiso   ? 		N 		-0.26529
N 1.0  		0.5157776664086524 		0.13102365295907353  0.9108830800038467 		Uiso   ? 		N 		-0.26529
N 1.0  		0.43157424379614145 		0.22058101874570618  0.7137442795807194 		Uiso   ? 		N 		-0.26529
N 1.0  		0.7656139239510708 		0.2571400529983316  0.5481420304447926 		Uiso   ? 		N 		-0.26749
N 1.0  		0.12271580963524119 		0.18721169889096087  0.742735279642944 		Uiso   ? 		N 		-0.26749
N 1.0  		0.9351638272013066 		0.591569339483757  0.5388083426198813 		Uiso   ? 		N 		-0.26749
N 1.0  		0.2920203533677154 		0.5211502600844048  0.7581500065052975 		Uiso   ? 		N 		-0.26749
N 1.0  		1.0981330115862158 		0.9213367356953578  0.5328687230949377 		Uiso   ? 		N 		-0.26749
N 1.0  		0.46166886465424795 		0.8570517224457749  0.7500890942928742 		Uiso   ? 		N 		-0.26749
N 1.0  		0.2643824767711422 		0.2576307782903131  0.5475763523947981 		Uiso   ? 		N 		-0.26749
N 1.0  		0.6254194139217399 		0.1896653253508686  0.7490991577053835 		Uiso   ? 		N 		-0.26749
N 1.0  		0.43681743202054296 		0.5923054274217294  0.538525503594884 		Uiso   ? 		N 		-0.26749
N 1.0  		-0.20588578736865282 		0.5189419962704879  0.757160069917807 		Uiso   ? 		N 		-0.26749
N 1.0  		0.5995917214788182 		0.9255079006772009  0.5297574938199673 		Uiso   ? 		N 		-0.26749
N 1.0  		-0.03920334087188587 		0.8565609971537934  0.7543316796678338 		Uiso   ? 		N 		-0.26749
N 1.0  		1.0963110433937109 		0.630827362842281  0.5769916109945186 		Uiso   ? 		N 		-0.26353
N 1.0  		0.4612991371766584 		0.5596721955049564  0.7954847578049429 		Uiso   ? 		N 		-0.26353
N 1.0  		0.26127962703768315 		0.9615762096378448  0.5859010402819339 		Uiso   ? 		N 		-0.26353
N 1.0  		0.6323123999106168 		0.8953282952203357  0.7874238455925194 		Uiso   ? 		N 		-0.26353
N 1.0  		0.43221549634205847 		0.29836097752478163  0.5844868451569474 		Uiso   ? 		N 		-0.26353
N 1.0  		-0.20549304342441366 		0.22818726077142018  0.7973232114674255 		Uiso   ? 		N 		-0.26353
N 1.0  		0.5981771383852768 		0.6315634507802532  0.5760016744070281 		Uiso   ? 		N 		-0.26353
N 1.0  		-0.03348306851967198 		0.5628619099028365  0.7908179138924872 		Uiso   ? 		N 		-0.26353
N 1.0  		0.7585635713567993 		0.9608401216998724  0.5861838793069312 		Uiso   ? 		N 		-0.26353
N 1.0  		0.1337382404577871 		0.8990087349101974  0.7868581675425249 		Uiso   ? 		N 		-0.26353
N 1.0  		0.9319507146928323 		0.2961527137108647  0.585476781744438 		Uiso   ? 		N 		-0.26353
N 1.0  		0.29420282910403955 		0.23015016193934637  0.7937877236549591 		Uiso   ? 		N 		-0.26353
N 1.0  		0.3984241377207094 		0.8899303170085386  0.6267712793940458 		Uiso   ? 		N 		-0.26982
N 1.0  		0.04909354046997958 		-0.022082638139169695  0.825465694454658 		Uiso   ? 		N 		-0.26982
N 1.0  		0.5631866732587212 		0.21861811757778  0.6088110013067163 		Uiso   ? 		N 		-0.26982
N 1.0  		0.21480982299543616 		0.31062910982432035  0.8244757578671675 		Uiso   ? 		N 		-0.26982
N 1.0  		0.7308987012717036 		0.555746393169104  0.6197003037691128 		Uiso   ? 		N 		-0.26982
N 1.0  		0.3803400082171068 		0.6484934733536166  0.8308396359296071 		Uiso   ? 		N 		-0.26982
N 1.0  		0.8985843364161424 		0.8877220531946217  0.6271955379315416 		Uiso   ? 		N 		-0.26982
N 1.0  		0.5490588442387788 		-0.020855824909215823  0.820940270054701 		Uiso   ? 		N 		-0.26982
N 1.0  		1.0673777087515266 		0.22107174403768773  0.6078210647192257 		Uiso   ? 		N 		-0.26982
N 1.0  		0.7136557348345713 		0.3125920109922466  0.825465694454658 		Uiso   ? 		N 		-0.26982
N 1.0  		0.23349207719370665 		0.5562371184610855  0.6187103671816223 		Uiso   ? 		N 		-0.26982
N 1.0  		-0.11857164231289263 		0.6455491216017274  0.8298496993421165 		Uiso   ? 		N 		-0.26982
N 1.0  		0.6000443605820456 		0.35013249582883504  0.6652373867936802 		Uiso   ? 		N 		-0.26594
N 1.0  		0.548028629777551 		0.2698989105898518  0.8575679237918531 		Uiso   ? 		N 		-0.26594
N 1.0  		0.7672152049683767 		0.6823535185003436  0.6714598453436211 		Uiso   ? 		N 		-0.26594
N 1.0  		0.7153485467913067 		0.6075179114731574  0.8660530945417725 		Uiso   ? 		N 		-0.26594
N 1.0  		0.9401168075307165 		1.0192364314456768  0.674429655106093 		Uiso   ? 		N 		-0.26594
N 1.0  		-0.12092132189224847 		-0.06207674943566592  0.8664773530792684 		Uiso   ? 		N 		-0.26594
N 1.0  		1.0995013500696256 		0.34694278143095497  0.6628332550812032 		Uiso   ? 		N 		-0.26594
N 1.0  		0.04454080349259848 		0.2684267347139072  0.864638899416786 		Uiso   ? 		N 		-0.26594
N 1.0  		0.2657055289252543 		0.681862793208362  0.67683378681857 		Uiso   ? 		N 		-0.26594
N 1.0  		0.2123843088873097 		0.6075179114731574  0.863790382341794 		Uiso   ? 		N 		-0.26594
N 1.0  		0.4374701443122343 		1.0160467170477967  0.668631455093648 		Uiso   ? 		N 		-0.26594
N 1.0  		0.3785773345636116 		-0.06305820001962902  0.8688814847917457 		Uiso   ? 		N 		-0.26594
N 1.0  		0.6804610723499547 		0.41024634409657473  0.9043777824289083 		Uiso   ? 		N 		-0.43651
N 1.0  		0.5890723297005604 		0.49563254490136427  0.7147342161682101 		Uiso   ? 		N 		-0.43651
N 1.0  		0.841029447294334 		0.7454117185199726  0.9043777824289083 		Uiso   ? 		N 		-0.43651
N 1.0  		0.7554742261881742 		0.8258906664049466  0.7215223527681456 		Uiso   ? 		N 		-0.43651
N 1.0  		1.0118936374008678 		1.075669840023555  1.9043551553069085 		Uiso   ? 		N 		-0.43651
N 1.0  		0.9292863498688664 		0.16120325841593877  0.7121886649432342 		Uiso   ? 		N 		-0.43651
N 1.0  		0.17621309578913272 		0.4085288055746394  0.9067819141413855 		Uiso   ? 		N 		-0.43651
N 1.0  		1.0887987504284866 		0.4917067425655119  0.7075218210307785 		Uiso   ? 		N 		-0.43651
N 1.0  		0.34713886925560183 		0.7508096967317697  0.9070647531663829 		Uiso   ? 		N 		-0.43651
N 1.0  		0.256253798595508 		0.8278535675728728  0.719259640568167 		Uiso   ? 		N 		-0.43651
N 1.0  		0.5074419682905642 		1.075669840023555  0.899145260466458 		Uiso   ? 		N 		-0.43651
N 1.0  		0.4287428377970544 		0.16561978604377273  0.7198253186181617 		Uiso   ? 		N 		-0.43651
N 1.0  		0.7614353617502537 		0.2058592599862597  0.5323030450449431 		Uiso   ? 		N 		-0.43733
N 1.0  		0.12092278277521754 		0.13347727941898127  0.733260172305534 		Uiso   ? 		N 		-0.43733
N 1.0  		0.928890911476667 		0.5343998429679065  0.5318787865074471 		Uiso   ? 		N 		-0.43733
N 1.0  		0.2895898559907032 		0.4674158406124252  0.7499476747803755 		Uiso   ? 		N 		-0.43733
N 1.0  		1.0947058020384202 		0.8685837668073413  0.5192924498950667 		Uiso   ? 		N 		-0.43733
N 1.0  		0.45485708644891637 		0.8013544018058691  0.7406139869554642 		Uiso   ? 		N 		-0.43733
N 1.0  		0.26151172494973446 		0.2068407105702228  0.5331515621199351 		Uiso   ? 		N 		-0.43733
N 1.0  		0.6220338713422245 		0.13912062027676905  0.7335430113305313 		Uiso   ? 		N 		-0.43733
N 1.0  		0.4297514966746017 		0.5343998429679065  0.5317373669949484 		Uiso   ? 		N 		-0.43733
N 1.0  		-0.21121013436767777 		0.463244675630582  0.7502305138053728 		Uiso   ? 		N 		-0.43733
N 1.0  		0.5970626160655095 		0.8703013053292767  0.5253734889325089 		Uiso   ? 		N 		-0.43733
N 1.0  		-0.043064328387188267 		0.8020904897438415  0.7452808308679197 		Uiso   ? 		N 		-0.43733
N 1.0  		1.0906274547408914 		0.5761114927863382  0.5878809134569152 		Uiso   ? 		N 		-0.43609
N 1.0  		0.4567918815215194 		0.5034841495730691  0.7985959870799134 		Uiso   ? 		N 		-0.43609
N 1.0  		0.25719735172720326 		0.9053881637059574  0.5871738158944219 		Uiso   ? 		N 		-0.43609
N 1.0  		0.6275357130151318 		0.8398763372264207  0.7949190797549484 		Uiso   ? 		N 		-0.43609
N 1.0  		0.4283697829264924 		0.24094611836294044  0.5850525232069419 		Uiso   ? 		N 		-0.43609
N 1.0  		-0.21002437080213687 		0.1732260280694867  0.803687089529865 		Uiso   ? 		N 		-0.43609
N 1.0  		0.5910871313167512 		0.5748846795563843  0.5847696841819446 		Uiso   ? 		N 		-0.43609
N 1.0  		-0.035832553106083465 		0.5071645892629307  0.7994445041549052 		Uiso   ? 		N 		-0.43609
N 1.0  		0.7535415249435526 		0.904897438413976  0.5958004061568399 		Uiso   ? 		N 		-0.43609
N 1.0  		0.12786623335522224 		0.8430660516243008  0.7957675968299401 		Uiso   ? 		N 		-0.43609
N 1.0  		0.9271652301744995 		0.23898321719501425  0.5849111036944433 		Uiso   ? 		N 		-0.43609
N 1.0  		0.2883965606923391 		0.17518892923741292  0.8034042505048676 		Uiso   ? 		N 		-0.43609
N 1.0  		0.39562560106705463 		0.8354598095985867  0.6344079330689731 		Uiso   ? 		N 		-0.43511
N 1.0  		0.04137486050731339 		-0.07704387084110316  0.8135864554047709 		Uiso   ? 		N 		-0.43511
N 1.0  		0.5593168881205708 		0.16243007164589265  0.6072553866692311 		Uiso   ? 		N 		-0.43511
N 1.0  		0.21097290720271794 		0.25493178918441456  0.817263362729736 		Uiso   ? 		N 		-0.43511
N 1.0  		0.7280344259271845 		0.500294435175189  0.6249328257315631 		Uiso   ? 		N 		-0.43511
N 1.0  		0.3750397329406662 		0.591569339483757  0.8250414359171621 		Uiso   ? 		N 		-0.43511
N 1.0  		0.8942654992107487 		0.8327608204926883  0.6332765769689839 		Uiso   ? 		N 		-0.43511
N 1.0  		0.5441266082389807 		-0.07704387084110316  0.8150006505297575 		Uiso   ? 		N 		-0.43511
N 1.0  		1.0630829432687172 		0.1648836981058004  0.6088110013067163 		Uiso   ? 		N 		-0.43511
N 1.0  		0.7100553809367669 		0.2556678771223869  0.8249000164046635 		Uiso   ? 		N 		-0.43511
N 1.0  		0.23172312205626727 		0.501275885759152  0.6194174647441155 		Uiso   ? 		N 		-0.43511
N 1.0  		-0.12380617889846884 		0.5896064383158308  0.8202331724922077 		Uiso   ? 		N 		-0.43511
N 1.0  		0.5964440066842412 		0.2932083619589754  0.6625504160562057 		Uiso   ? 		N 		-0.43446
N 1.0  		0.5471184329522776 		0.21665521640985377  0.868740065279247 		Uiso   ? 		N 		-0.43446
N 1.0  		0.761106635970898 		0.6276376484444008  0.659156347756238 		Uiso   ? 		N 		-0.43446
N 1.0  		0.7076057951060561 		0.5537834920011778  0.8763767189541745 		Uiso   ? 		N 		-0.43446
N 1.0  		0.9306236698757018 		0.9615762096378448  0.6663687428936694 		Uiso   ? 		N 		-0.43446
N 1.0  		-0.12496554959546607 		0.8847777014427324  0.8810435628666302 		Uiso   ? 		N 		-0.43446
N 1.0  		1.094520970624659 		0.2932083619589754  0.6508125965188173 		Uiso   ? 		N 		-0.43446
N 1.0  		0.04152977666661409 		0.21395622730395528  0.8741140067541959 		Uiso   ? 		N 		-0.43446
N 1.0  		0.26244914258150825 		0.6269015605064286  0.6675000989936587 		Uiso   ? 		N 		-0.43446
N 1.0  		0.2065692428527614 		0.5508391402492885  0.872416972604212 		Uiso   ? 		N 		-0.43446
N 1.0  		0.4308620586563843 		0.9586318578859555  0.6625504160562057 		Uiso   ? 		N 		-0.43446
N 1.0  		0.37302160393150313 		0.8850230640887232  0.8855689872665871 		Uiso   ? 		N 		-0.43446
N 1.0  		0.62591683675213 		0.41122779468053783  0.9076304312163775 		Uiso   ? 		N 		-0.43027
N 1.0  		0.5398579436566697 		0.5000490725291982  0.701157942968339 		Uiso   ? 		N 		-0.43027
N 1.0  		0.7934404463153673 		0.747129257041908  0.9216309629537446 		Uiso   ? 		N 		-0.43027
N 1.0  		0.7054010818321175 		0.8285896555108451  0.7107744698182477 		Uiso   ? 		N 		-0.43027
N 1.0  		0.9597196630441001 		1.0771420158994995  0.9138528897663184 		Uiso   ? 		N 		-0.43027
N 1.0  		0.8765975847539909 		0.1629207969378742  0.7202495771556576 		Uiso   ? 		N 		-0.43027
N 1.0  		0.12384422650573125 		0.41343605849445486  0.9074890117038789 		Uiso   ? 		N 		-0.43027
N 1.0  		1.0392908614216654 		0.498086171361272  0.7010165234558403 		Uiso   ? 		N 		-0.43027
N 1.0  		0.2952496002389165 		0.7486014329178526  0.9226208995412352 		Uiso   ? 		N 		-0.43027
N 1.0  		0.2078893732409354 		0.8322700952007067  0.7058247868807946 		Uiso   ? 		N 		-0.43027
N 1.0  		0.4595506667258193 		1.0776327411914812  0.9154085044038036 		Uiso   ? 		N 		-0.43027
N 1.0  		0.3759313929232981 		0.16709196191971737  0.7143099576307141 		Uiso   ? 		N 		-0.43027
N 1.0  		0.709088243043477 		0.20316027088036118  0.544323703607329 		Uiso   ? 		N 		-0.43074
N 1.0  		0.06579801772842064 		0.13372264206497206  0.7399068893929709 		Uiso   ? 		N 		-0.43074
N 1.0  		0.8805264861220945 		0.5388163705957406  0.5470106743448034 		Uiso   ? 		N 		-0.43074
N 1.0  		0.23496460760227766 		0.4703601923643145  0.753483162592842 		Uiso   ? 		N 		-0.43074
N 1.0  		1.0421244425826892 		0.8734910197271568  0.5209894840450506 		Uiso   ? 		N 		-0.43074
N 1.0  		0.4071301316113323 		0.805770929433703  0.756735811380311 		Uiso   ? 		N 		-0.43074
N 1.0  		0.20842205121278423 		0.20733143586220434  0.5402225377448678 		Uiso   ? 		N 		-0.43074
N 1.0  		0.5702432103618358 		0.13838453233879675  0.7445737333054265 		Uiso   ? 		N 		-0.43074
N 1.0  		0.37926216959673387 		0.5388163705957406  0.5423438304323477 		Uiso   ? 		N 		-0.43074
N 1.0  		0.7372080410527259 		0.4659436647364806  0.7570186504053082 		Uiso   ? 		N 		-0.43074
N 1.0  		0.5474649166452397 		0.8769260967710276  0.5177368352575815 		Uiso   ? 		N 		-0.43074
N 1.0  		-0.09490313281274576 		0.8038080282657768  0.7553216162553245 		Uiso   ? 		N 		-0.43074
N 1.0  		1.0411019704883746 		0.5790558445382276  0.5738803817195481 		Uiso   ? 		N 		-0.42940
N 1.0  		0.40606599254873765 		0.5091274904308569  0.8026971529423744 		Uiso   ? 		N 		-0.42940
N 1.0  		0.2044035020991427 		0.910295416625773  0.5857596207694353 		Uiso   ? 		N 		-0.42940
N 1.0  		0.575951065730184 		0.8438021395622731  0.7888380407175061 		Uiso   ? 		N 		-0.42940
N 1.0  		0.37706336450473854 		0.24585337128275594  0.5915578207818802 		Uiso   ? 		N 		-0.42940
N 1.0  		0.7384266739636989 		0.17641574246736677  0.7949190797549484 		Uiso   ? 		N 		-0.42940
N 1.0  		0.5410468563061266 		0.5780743939542644  0.5731732841570548 		Uiso   ? 		N 		-0.42940
N 1.0  		-0.08938655301001347 		0.5118264795367553  0.7993030846424066 		Uiso   ? 		N 		-0.42940
N 1.0  		0.7036896683826732 		0.9093139660418098  0.5839211671069527 		Uiso   ? 		N 		-0.42940
N 1.0  		0.07627278844742663 		0.8452743154382177  0.7874238455925194 		Uiso   ? 		N 		-0.42940
N 1.0  		0.8768314522009446 		0.24413583276082051  0.5911335622443842 		Uiso   ? 		N 		-0.42940
N 1.0  		0.23598602444065753 		0.1778879183433114  0.7956261773174416 		Uiso   ? 		N 		-0.42940
N 1.0  		0.34275721512528184 		0.8376680734125038  0.632003801356496 		Uiso   ? 		N 		-0.42751
N 1.0  		-0.008877904675640706 		-0.07385415644322309  0.8227787237171835 		Uiso   ? 		N 		-0.42751
N 1.0  		0.5072503194229474 		0.16709196191971737  0.6008915086067915 		Uiso   ? 		N 		-0.42751
N 1.0  		0.1582031292972417 		0.2586122288742762  0.8161320066297467 		Uiso   ? 		N 		-0.42751
N 1.0  		0.6758035105024002 		0.5025026989891059  0.6225286940190861 		Uiso   ? 		N 		-0.42751
N 1.0  		0.3241254255181393 		0.595985867111591  0.8326780895920896 		Uiso   ? 		N 		-0.42751
N 1.0  		0.8428845444752826 		0.8349690843066052  0.6247914062190645 		Uiso   ? 		N 		-0.42751
N 1.0  		0.4922396603682548 		-0.07287270585925999  0.8232029822546796 		Uiso   ? 		N 		-0.42751
N 1.0  		1.0110733156391103 		0.16880950044165277  1.6044043692972583 		Uiso   ? 		N 		-0.42751
N 1.0  		0.6577434527213818 		0.25983904210423003  0.8195260749297145 		Uiso   ? 		N 		-0.42751
N 1.0  		1.1785640558569155 		0.5042202375110414  0.6204074013316061 		Uiso   ? 		N 		-0.42751
N 1.0  		-0.17584867587350783 		0.5930415153597016  0.8318295725170975 		Uiso   ? 		N 		-0.42751
N 1.0  		0.5443116992957536 		0.296888801648837  0.6607119623937232 		Uiso   ? 		N 		-0.43171
N 1.0  		0.4925172562864364 		0.2183727549317892  0.8660530945417725 		Uiso   ? 		N 		-0.43171
N 1.0  		0.7100608511666424 		0.6300912749043086  0.6690557136311439 		Uiso   ? 		N 		-0.43171
N 1.0  		0.6594603364007015 		0.553538129355187  1.8602322674073277 		Uiso   ? 		N 		-0.43171
N 1.0  		0.8834203034190735 		0.9674649131416234  0.6802278551185378 		Uiso   ? 		N 		-0.43171
N 1.0  		-0.17835752391819448 		0.8855137893807048  0.8732654896792039 		Uiso   ? 		N 		-0.43171
N 1.0  		1.0435978655792841 		0.2959073510648739  0.6574593136062542 		Uiso   ? 		N 		-0.43171
N 1.0  		-0.011886269378698619 		0.21591912847188147  0.8688814847917457 		Uiso   ? 		N 		-0.43171
N 1.0  		0.20936826646740592 		0.6291098243203456  0.673581138031101 		Uiso   ? 		N 		-0.43171
N 1.0  		0.155319765499024 		0.5550103052311317  0.862941865266802 		Uiso   ? 		N 		-0.43171
N 1.0  		0.3837156332677723 		0.9637844734517618  0.6773994648685647 		Uiso   ? 		N 		-0.43171
N 1.0  		0.321476302468876 		0.8847777014427324  0.8735483287042013 		Uiso   ? 		N 		-0.43171
N 1.0  		0.6283890010974222 		0.4671704779664344  0.9128629531788278 		Uiso   ? 		N 		-0.46571
N 1.0  		0.544814251379052 		0.5550103052311317  0.6932384502684142 		Uiso   ? 		N 		-0.46571
N 1.0  		0.7978490939342096 		0.8018451270978506  0.9308232312661572 		Uiso   ? 		N 		-0.46571
N 1.0  		0.7114286380389954 		0.885268426734714  0.7045520112683068 		Uiso   ? 		N 		-0.46571
N 1.0  		0.9622852571638587 		0.13200510354303663  0.9186611531912728 		Uiso   ? 		N 		-0.46571
N 1.0  		0.8772471479617662 		0.21861811757778  0.7145927966557114 		Uiso   ? 		N 		-0.46571
N 1.0  		0.12880933185096144 		0.4701148297183237  0.9137114702538198 		Uiso   ? 		N 		-0.46571
N 1.0  		1.0448276985930198 		0.5537834920011778  0.6935212892934115 		Uiso   ? 		N 		-0.46571
N 1.0  		0.29945455530827725 		0.8050348414957308  0.9302575532161627 		Uiso   ? 		N 		-0.46571
N 1.0  		0.21343500803513768 		0.8896849543625479  0.7022892990683283 		Uiso   ? 		N 		-0.46571
N 1.0  		0.4635226792612838 		0.13445873000294437  0.919368250753766 		Uiso   ? 		N 		-0.46571
N 1.0  		0.37878687064496935 		0.22082638139169694  0.7045520112683068 		Uiso   ? 		N 		-0.46571
N 1.0  		0.7116830871476502 		0.2593483168122485  0.5522431963072537 		Uiso   ? 		N 		-0.46620
N 1.0  		0.06878497283182072 		0.18941996270487782  0.744432313792928 		Uiso   ? 		N 		-0.46620
N 1.0  		0.8868651405375985 		0.596967317695554  0.5511118402072644 		Uiso   ? 		N 		-0.46620
N 1.0  		0.2403787650147512 		0.5258121503582295  0.7587156845552923 		Uiso   ? 		N 		-0.46620
N 1.0  		1.0457641423028141 		0.9262439886151733  0.5337172401699297 		Uiso   ? 		N 		-0.46620
N 1.0  		0.4136155375083014 		0.8629404259495534  0.7615440748052653 		Uiso   ? 		N 		-0.46620
N 1.0  		0.21249552890041623 		0.2618019432721563  0.5511118402072644 		Uiso   ? 		N 		-0.46620
N 1.0  		0.5721172500124603 		0.19015605064285016  0.7547559382053298 		Uiso   ? 		N 		-0.46620
N 1.0  		0.3871539939094088 		0.5979487682795172  0.5487077084947872 		Uiso   ? 		N 		-0.46620
N 1.0  		0.7419935255710588 		0.523113161252331  0.7609783967552708 		Uiso   ? 		N 		-0.46620
N 1.0  		0.5474265447448984 		0.9286976150750811  0.5273533621074902 		Uiso   ? 		N 		-0.46620
N 1.0  		-0.0909764066065788 		0.8592599862596918  0.7619683333427613 		Uiso   ? 		N 		-0.46620
N 1.0  		1.0478151406574094 		0.6332809893021887  0.5618597231571624 		Uiso   ? 		N 		-0.46553
N 1.0  		0.4091427580655864 		0.5645794484247719  0.7956261773174416 		Uiso   ? 		N 		-0.46553
N 1.0  		0.2093028687535085 		0.9659927372656787  0.5801028402694891 		Uiso   ? 		N 		-0.46553
N 1.0  		0.5814879029015384 		0.8994994602021789  0.7785144163051041 		Uiso   ? 		N 		-0.46553
N 1.0  		0.37859575774726406 		0.3020414172146433  0.5867495573569259 		Uiso   ? 		N 		-0.46553
N 1.0  		0.7424760799287465 		0.23211306310727256  0.7886966212050074 		Uiso   ? 		N 		-0.46553
N 1.0  		0.5456767917201465 		0.6345078025321426  0.5659608890196234 		Uiso   ? 		N 		-0.46553
N 1.0  		-0.08682457825127243 		0.5675238001766612  0.7906764943799887 		Uiso   ? 		N 		-0.46553
N 1.0  		0.7069460547264194 		0.9642751987437433  0.579678581731993 		Uiso   ? 		N 		-0.46553
N 1.0  		0.08041200482592298 		0.9007262734321327  0.7780901577676081 		Uiso   ? 		N 		-0.46553
N 1.0  		0.8788457668561457 		0.2995877907547355  0.5863252988194299 		Uiso   ? 		N 		-0.46553
N 1.0  		0.24316584192263171 		0.23432132692118954  0.7857268114425356 		Uiso   ? 		N 		-0.46553
N 1.0  		0.34460718305332194 		0.890666404946511  0.621255918406598 		Uiso   ? 		N 		-0.46810
N 1.0  		-0.0026049889510011276 		-0.01668465992737266  0.8297082798296178 		Uiso   ? 		N 		-0.46810
N 1.0  		0.5111201045610978 		0.2232800078516047  0.6059826110567432 		Uiso   ? 		N 		-0.46810
N 1.0  		0.16009476419356192 		0.3138188242222004  0.825465694454658 		Uiso   ? 		N 		-0.46810
N 1.0  		0.6769349951228509 		0.5574639316910394  0.6178618501066303 		Uiso   ? 		N 		-0.46810
N 1.0  		0.32920441299940245 		0.6511924624595152  0.8398904847295211 		Uiso   ? 		N 		-0.46810
N 1.0  		0.846754329613433 		0.8911571302384926  0.630306767206512 		Uiso   ? 		N 		-0.46810
N 1.0  		0.49884774602410475 		-0.015457846697418787  0.830415377392111 		Uiso   ? 		N 		-0.46810
N 1.0  		1.01536808112192 		0.2249975463735401  1.605677144909746 		Uiso   ? 		N 		-0.46810
N 1.0  		0.6602396887892585 		0.3145549121601728  0.827586987142138 		Uiso   ? 		N 		-0.46810
N 1.0  		1.1819190502369583 		0.5606536460889195  0.618851786694121 		Uiso   ? 		N 		-0.46810
N 1.0  		-0.16966557056231701 		0.6504563745215428  0.8352236408170653 		Uiso   ? 		N 		-0.46810
N 1.0  		0.546236203537506 		0.3525861222887428  0.6689142941186453 		Uiso   ? 		N 		-0.46733
N 1.0  		0.49471119176853484 		0.2733339876337227  0.8564365676918638 		Uiso   ? 		N 		-0.46733
N 1.0  		0.7146009761672134 		0.6867700461281775  0.6769752063310688 		Uiso   ? 		N 		-0.46733
N 1.0  		0.6632731804708354 		0.6104622632250467  1.8559896820323682 		Uiso   ? 		N 		-0.46733
N 1.0  		0.8911565786274355 		1.0258612228874278  0.685884635618484 		Uiso   ? 		N 		-0.46733
N 1.0  		-0.17366702807514045 		-0.059623122975758176  0.8620933481918102 		Uiso   ? 		N 		-0.46733
N 1.0  		1.046821382577598 		0.35037785847482583  0.6649545477686829 		Uiso   ? 		N 		-0.46733
N 1.0  		-0.007714183654770057 		0.271861811757778  0.8650631579542819 		Uiso   ? 		N 		-0.46733
N 1.0  		0.21287001232891373 		0.6845617823142606  0.6803692746310365 		Uiso   ? 		N 		-0.46733
N 1.0  		0.16284355053505647 		0.6134066149769359  0.8557294701293706 		Uiso   ? 		N 		-0.46733
N 1.0  		0.3863104773719457 		1.019972519383649  0.6786722404810527 		Uiso   ? 		N 		-0.46733
N 1.0  		0.3252598965545954 		-0.059623122975758176  0.8650631579542819 		Uiso   ? 		N 		-0.46733
N 1.0  		0.5192224712021437 		0.18721169889096087  0.915267084891305 		Uiso   ? 		N 		-0.46525
N 1.0  		0.43317885220641983 		0.2730886249877319  0.6987538112558618 		Uiso   ? 		N 		-0.46525
N 1.0  		0.6839003745885368 		0.518696633624497  0.9176712166037821 		Uiso   ? 		N 		-0.46525
N 1.0  		0.6021570236305316 		0.6084993620571205  0.6933798697809128 		Uiso   ? 		N 		-0.46525
N 1.0  		0.8551261274948248 		0.8543527333398765  0.9278534215036854 		Uiso   ? 		N 		-0.46525
N 1.0  		0.7683047629775357 		0.9365492197467858  0.7008751039433417 		Uiso   ? 		N 		-0.46525
N 1.0  		1.0171350884154005 		0.1847580724310531  0.9172469580662861 		Uiso   ? 		N 		-0.46525
N 1.0  		0.9295054301770733 		0.2691628226518795  0.7025721380933255 		Uiso   ? 		N 		-0.46525
N 1.0  		0.18593081630726357 		0.5218863480223771  0.9169641190412888 		Uiso   ? 		N 		-0.46525
N 1.0  		1.1032569934287313 		0.6060457355972128  0.6918242551434277 		Uiso   ? 		N 		-0.46525
N 1.0  		0.35722230790441595 		0.8585238983217196  0.9316717483411492 		Uiso   ? 		N 		-0.46525
N 1.0  		0.270972675213251 		0.9397389341446659  0.7022892990683283 		Uiso   ? 		N 		-0.46525
N 1.0  		0.76793053919205 		0.31234664834625575  0.5556372646072214 		Uiso   ? 		N 		-0.46786
N 1.0  		0.1252120457031178 		0.24192756894690354  0.7471192845304024 		Uiso   ? 		N 		-0.46786
N 1.0  		0.9415594226848272 		0.6489841986455982  0.5424852499448464 		Uiso   ? 		N 		-0.46786
N 1.0  		0.2964706679548379 		0.5780743939542644  0.761685494317764 		Uiso   ? 		N 		-0.46786
N 1.0  		1.1021583458286792 		0.9782608695652175  0.5366870499324015 		Uiso   ? 		N 		-0.46786
N 1.0  		0.4690371005859674 		0.9147119442536069  0.7560287138178178 		Uiso   ? 		N 		-0.46786
N 1.0  		0.2694285949069732 		0.31234664834625575  0.5552130060697255 		Uiso   ? 		N 		-0.46786
N 1.0  		0.6281522118845304 		0.24315438217685742  0.7578671674803003 		Uiso   ? 		N 		-0.46786
N 1.0  		0.44227325640129656 		0.6499656492295613  0.5399396987198706 		Uiso   ? 		N 		-0.46786
N 1.0  		-0.2019261918170538 		0.5748846795563843  0.7615440748052653 		Uiso   ? 		N 		-0.46786
N 1.0  		0.6005435852723717 		0.980959858671116  0.5356971133449109 		Uiso   ? 		N 		-0.46786
N 1.0  		-0.0367640458720257 		0.9120129551477084  0.7536245821053406 		Uiso   ? 		N 		-0.46786
N 1.0  		0.9333275588310449 		0.3516046717047797  0.5816584549069743 		Uiso   ? 		N 		-0.46481
N 1.0  		0.3013738489631658 		0.2848660319952891  0.7821913236300692 		Uiso   ? 		N 		-0.46481
N 1.0  		1.1046102528053492 		0.6865246834821868  0.5669508256071141 		Uiso   ? 		N 		-0.46481
N 1.0  		0.4658392621772295 		0.6163509667288253  0.7923735285299724 		Uiso   ? 		N 		-0.46481
N 1.0  		0.2663016734509299 		1.0175188929237415  0.5817998744194729 		Uiso   ? 		N 		-0.46481
N 1.0  		0.637894523411269 		-0.04760035332221023  0.7782315772801068 		Uiso   ? 		N 		-0.46481
N 1.0  		0.43257803306379194 		0.3513593090587889  0.5744460597695428 		Uiso   ? 		N 		-0.46481
N 1.0  		-0.2007732975969452 		0.2843753067033075  0.7911007529174846 		Uiso   ? 		N 		-0.46481
N 1.0  		0.6019811848325627 		0.6867700461281775  0.5709105719570764 		Uiso   ? 		N 		-0.46481
N 1.0  		-0.029490603622640776 		0.6192953184807145  0.7817670650925732 		Uiso   ? 		N 		-0.46481
N 1.0  		0.7635286767020295 		1.0175188929237415  0.5815170353944756 		Uiso   ? 		N 		-0.46481
N 1.0  		0.138003755956182 		-0.046128177446265586  0.7776658992301121 		Uiso   ? 		N 		-0.46481
N 1.0  		0.4021055044091145 		0.9448915497104722  0.6192760452316168 		Uiso   ? 		N 		-0.46853
N 1.0  		0.05506415560884097 		0.03533222102267151  0.8299911188546151 		Uiso   ? 		N 		-0.46853
N 1.0  		0.5685767589486105 		0.2752968888016489  0.609800937894207 		Uiso   ? 		N 		-0.46853
N 1.0  		0.21642322902856248 		0.3648542545882815  0.8331023481295855 		Uiso   ? 		N 		-0.46853
N 1.0  		0.7337301072707907 		0.6107076258710374  0.617154752544137 		Uiso   ? 		N 		-0.46853
N 1.0  		0.3871429887995905 		0.702473255471587  0.8430017140044915 		Uiso   ? 		N 		-0.46853
N 1.0  		0.902756422140071 		0.9436647364805183  0.6253570842690591 		Uiso   ? 		N 		-0.46853
N 1.0  		0.5562057923753209 		0.035086858376680734  0.8281526651921326 		Uiso   ? 		N 		-0.46853
N 1.0  		1.0703975332003588 		0.277259789969575  0.6078210647192257 		Uiso   ? 		N 		-0.46853
N 1.0  		0.7174028402138407 		0.3685346942781431  0.830415377392111 		Uiso   ? 		N 		-0.46853
N 1.0  		0.23635635253822584 		0.6116890764550005  0.6250742452440617 		Uiso   ? 		N 		-0.46853
N 1.0  		-0.1115714456578158 		0.702473255471587  0.8381934505795371 		Uiso   ? 		N 		-0.46853
N 1.0  		0.44218989013970267 		1.072234762979684  0.6704699087561306 		Uiso   ? 		N 		-0.46596
N 1.0  		0.3817767798393412 		-0.007360879379723231  0.8626590262418047 		Uiso   ? 		N 		-0.46596
N 1.0  		0.6026632764088031 		0.4050937285307685  0.6689142941186453 		Uiso   ? 		N 		-0.46596
N 1.0  		0.5517516634342362 		0.32706840710570223  0.8551637920793759 		Uiso   ? 		N 		-0.46596
N 1.0  		0.7696544999682369 		0.7378054764942586  0.6769752063310688 		Uiso   ? 		N 		-0.46596
N 1.0  		0.7197331226875647 		0.663460594759054  0.8608205725793222 		Uiso   ? 		N 		-0.46596
N 1.0  		0.9471827428766577 		1.0771420158994995  0.6765509477935727 		Uiso   ? 		N 		-0.46596
N 1.0  		-0.11800010547971279 		-0.007360879379723231  0.8608205725793222 		Uiso   ? 		N 		-0.46596
N 1.0  		1.1038289848978673 		0.40362155265482386  0.6667930014311655 		Uiso   ? 		N 		-0.46596
N 1.0  		0.0478059874591924 		0.32510550593777604  0.8653459969792792 		Uiso   ? 		N 		-0.46596
N 1.0  		0.2694197649590916 		0.737314751202277  0.679379338043546 		Uiso   ? 		N 		-0.46596
N 1.0  		0.22023446623170467 		0.6644420453430171  0.8574265042793544 		Uiso   ? 		N 		-0.46596
N 1.0  		0.6223107529814385 		0.18132299538718227  0.8975896458289729 		Uiso   ? 		N 		-0.42030
N 1.0  		0.5384401791541785 		0.26474629502404556  0.701157942968339 		Uiso   ? 		N 		-0.42030
N 1.0  		0.792620806507544 		0.5159976445185985  0.9145599873288116 		Uiso   ? 		N 		-0.42030
N 1.0  		0.7049999458920646 		0.6021199332613604  0.7116229868932396 		Uiso   ? 		N 		-0.42030
N 1.0  		0.9547816971714149 		0.8479733045441162  1.902516701644426 		Uiso   ? 		N 		-0.42030
N 1.0  		0.8698070055142272 		0.9291883403670625  0.7223708698431375 		Uiso   ? 		N 		-0.42030
N 1.0  		0.12300931259817148 		0.18524879772303465  0.899145260466458 		Uiso   ? 		N 		-0.42030
N 1.0  		1.0377920841285733 		0.26474629502404556  0.6984709722308645 		Uiso   ? 		N 		-0.42030
N 1.0  		0.2910870587418371 		0.5167337324565708  0.9098931434163561 		Uiso   ? 		N 		-0.42030
N 1.0  		0.20254817760021607 		0.5954951418196095  0.7145927966557114 		Uiso   ? 		N 		-0.42030
N 1.0  		0.46182209261260165 		0.8514083815879872  0.9206410263662539 		Uiso   ? 		N 		-0.42030
N 1.0  		0.37058657792156097 		0.9311512415349887  0.7230779674056308 		Uiso   ? 		N 		-0.42030
N 1.0  		0.8750737294913015 		0.30989302188634804  0.5420609914073504 		Uiso   ? 		N 		-0.42045
N 1.0  		0.23222375862064062 		0.2375110413190696  0.7399068893929709 		Uiso   ? 		N 		-0.42045
N 1.0  		1.0388183382518164 		0.6369614289920503  0.5177368352575815 		Uiso   ? 		N 		-0.42045
N 1.0  		0.40049872083689947 		0.5719403278044951  0.7532003235678446 		Uiso   ? 		N 		-0.42045
N 1.0  		1.2079103918119611 		0.9708999901854942  0.5313131084574525 		Uiso   ? 		N 		-0.42045
N 1.0  		0.568160284258754 		0.9051428010599667  0.7324116552305422 		Uiso   ? 		N 		-0.42045
N 1.0  		0.3726812234134288 		0.30891157130238495  0.539798279207372 		Uiso   ? 		N 		-0.42045
N 1.0  		0.7363425789456933 		0.24364510746883897  0.7465536064804077 		Uiso   ? 		N 		-0.42045
N 1.0  		0.542638511762628 		0.6399057807439397  0.520423805995056 		Uiso   ? 		N 		-0.42045
N 1.0  		-0.09986749155397456 		0.5694867013445873  0.7441494747679306 		Uiso   ? 		N 		-0.42045
N 1.0  		0.7083395201883482 		0.9755618804593189  0.533575820657431 		Uiso   ? 		N 		-0.42045
N 1.0  		0.06501642552785969 		0.9056335263519482  0.7334015918180327 		Uiso   ? 		N 		-0.42045
N 1.0  		1.0354672718847249 		0.3442437923250565  1.5670696179976127 		Uiso   ? 		N 		-0.42273
N 1.0  		0.4022298233600208 		0.27578761409363045  0.7978888895174201 		Uiso   ? 		N 		-0.42273
N 1.0  		1.2039547242733133 		0.678673078810482  0.5871738158944219 		Uiso   ? 		N 		-0.42273
N 1.0  		0.5703404388491187 		0.6077632741191481  0.7920906895049752 		Uiso   ? 		N 		-0.42273
N 1.0  		0.37044360846902424 		1.0099126508980272  0.5868909768694246 		Uiso   ? 		N 		-0.42273
N 1.0  		0.7412763081534941 		-0.055451957993915016  0.7957675968299401 		Uiso   ? 		N 		-0.42273
N 1.0  		0.5370463403902489 		0.3422808911571303  0.5668094060946153 		Uiso   ? 		N 		-0.42273
N 1.0  		-0.09852850003008007 		0.27382471292570426  0.802838572454873 		Uiso   ? 		N 		-0.42273
N 1.0  		0.7064254204364354 		0.6789184414564727  0.5856182012569366 		Uiso   ? 		N 		-0.42273
N 1.0  		0.07550129208477183 		0.6116890764550005  0.7838883577800531 		Uiso   ? 		N 		-0.42273
N 1.0  		0.8655369123739807 		1.008195112376092  0.5924063378568721 		Uiso   ? 		N 		-0.42273
N 1.0  		0.2423757763923018 		-0.05029934242810875  0.7911007529174846 		Uiso   ? 		N 		-0.42273
N 1.0  		0.5035572823546781 		0.9336048679948966  0.6137606842441693 		Uiso   ? 		N 		-0.42432
N 1.0  		0.15712053472596085 		0.02355481401511434  0.8179704602922293 		Uiso   ? 		N 		-0.42432
N 1.0  		0.6702016812441827 		0.26818137206791637  0.6213973379190968 		Uiso   ? 		N 		-0.42432
N 1.0  		0.3211128241501968 		0.3574933752085583  0.8349408017920681 		Uiso   ? 		N 		-0.42432
N 1.0  		0.838461369360705 		0.6055550103052312  0.6191346257191183 		Uiso   ? 		N 		-0.42432
N 1.0  		0.48795729622816547 		0.6911865737560114  0.8287183432421272 		Uiso   ? 		N 		-0.42432
N 1.0  		1.0018708081900096 		0.9323780547649426  0.611780811069188 		Uiso   ? 		N 		-0.42432
N 1.0  		0.6578131194251973 		0.02453626459907744  0.813162196867275 		Uiso   ? 		N 		-0.42432
N 1.0  		1.174907507495096 		0.2703896358818334  0.6170133330316384 		Uiso   ? 		N 		-0.42432
N 1.0  		-0.18051073402895854 		0.3584748257925214  0.8374863530170439 		Uiso   ? 		N 		-0.42432
N 1.0  		0.3425181047664306 		0.6072725488271666  0.6218215964565927 		Uiso   ? 		N 		-0.42432
N 1.0  		-0.010012262053107845 		0.6943762881538915  0.8198089139547118 		Uiso   ? 		N 		-0.42432
N 1.0  		0.7096749893263259 		0.40067720090293457  0.6598634453187313 		Uiso   ? 		N 		-0.42436
N 1.0  		0.6551181740767249 		0.32216115418588676  0.8722755530917135 		Uiso   ? 		N 		-0.42436
N 1.0  		0.874041794504093 		0.7306899597605262  0.6595806062937339 		Uiso   ? 		N 		-0.42436
N 1.0  		-0.1796590851386934 		0.6551182647953676  0.8816092409166247 		Uiso   ? 		N 		-0.42436
N 1.0  		1.039357168407475 		1.0621748944940623  0.6469942696813535 		Uiso   ? 		N 		-0.42436
N 1.0  		-0.0108657128033091 		-0.011532044361566397  0.8722755530917135 		Uiso   ? 		N 		-0.42436
N 1.0  		0.20987403228468768 		0.4019040141328884  0.6566107965312622 		Uiso   ? 		N 		-0.42436
N 1.0  		0.15456354323610563 		0.31848071449602516  0.868740065279247 		Uiso   ? 		N 		-0.42436
N 1.0  		0.3723941646023534 		0.7328982235744431  0.660429123368726 		Uiso   ? 		N 		-0.42436
N 1.0  		0.3179841008342174 		0.6534007262734322  0.8835891140916059 		Uiso   ? 		N 		-0.42436
N 1.0  		0.5413130738124894 		1.062665619786044  0.6464285916313589 		Uiso   ? 		N 		-0.42436
N 1.0  		0.48526597024071066 		-0.012022769653547946  0.8766595579791717 		Uiso   ? 		N 		-0.42436
H 1.0  		0.27324095201611737 		0.3454706055550103  0.9257321288162056 		Uiso   ? 		H 		0.33403
H 1.0  		0.1989018877442135 		0.4347826086956522  0.687157411230972 		Uiso   ? 		H 		0.33403
H 1.0  		0.44406579630033055 		0.6798998920404358  0.9180954751412781 		Uiso   ? 		H 		0.33403
H 1.0  		0.3591568433340072 		0.7620963784473452  0.68843018684346 		Uiso   ? 		H 		0.33403
H 1.0  		0.6144087191718681 		1.0150652664638335  0.9077718507288761 		Uiso   ? 		H 		0.33403
H 1.0  		0.5277910472040607 		1.0955442143488077  0.6761266892560768 		Uiso   ? 		H 		0.33403
H 1.0  		0.777692621126421 		0.3454706055550103  0.9386013044535833 		Uiso   ? 		H 		0.33403
H 1.0  		0.701695302444161 		0.43699087250956914  0.6885716063559586 		Uiso   ? 		H 		0.33403
H 1.0  		0.944055171791714 		0.6798998920404358  0.9086203678038681 		Uiso   ? 		H 		0.33403
H 1.0  		0.8549380823470802 		0.7643046422612623  0.7085117576182691 		Uiso   ? 		H 		0.33403
H 1.0  		0.110552853610273 		1.0128570026499166  0.901266553153938 		Uiso   ? 		H 		0.33403
H 1.0  		1.025793474830766 		1.092845225242909  0.6792379185310472 		Uiso   ? 		H 		0.33403
H 1.0  		0.3668836389655873 		0.14304642261262146  0.534000079194927 		Uiso   ? 		H 		0.33374
H 1.0  		0.7204834200846516 		0.07508096967317696  0.765786660180225 		Uiso   ? 		H 		0.33374
H 1.0  		0.5275899677685838 		0.47551280793012074  0.5474349328822994 		Uiso   ? 		H 		0.33374
H 1.0  		-0.09298555968383782 		0.4136814211404456  0.7800700309425893 		Uiso   ? 		H 		0.33374
H 1.0  		0.6923970273907464 		0.802581215035823  0.5478591914197953 		Uiso   ? 		H 		0.33374
H 1.0  		0.05731522715190024 		0.7414859161841202  0.7615440748052653 		Uiso   ? 		H 		0.33374
H 1.0  		0.8623185892786427 		0.13691235646285213  0.5396568596948732 		Uiso   ? 		H 		0.33374
H 1.0  		0.2269344884540183 		0.07606242025714006  0.7742718309301444 		Uiso   ? 		H 		0.33374
H 1.0  		1.0383177340124767 		0.47404063205417607  0.548000610932294 		Uiso   ? 		H 		0.33374
H 1.0  		0.3975797119113341 		0.4109824320345471  0.7762517041051256 		Uiso   ? 		H 		0.33374
H 1.0  		1.1928442525722212 		0.8030719403278046  0.5427680889698437 		Uiso   ? 		H 		0.33374
H 1.0  		0.5547371253296336 		0.7380508391402494  0.755463035767823 		Uiso   ? 		H 		0.33374
H 1.0  		0.6954864048844052 		0.5108450289527923  0.5597384304696825 		Uiso   ? 		H 		0.33526
H 1.0  		0.07849034101615329 		0.4485229168711356  0.757160069917807 		Uiso   ? 		H 		0.33526
H 1.0  		0.8534937789920226 		0.8379134360584946  0.5768501914820199 		Uiso   ? 		H 		0.33526
H 1.0  		0.2293957290234477 		0.7758366866228286  0.7729990553176566 		Uiso   ? 		H 		0.33526
H 1.0  		1.0428047322989933 		0.18254980861713613  1.5433111398978385 		Uiso   ? 		H 		0.33526
H 1.0  		0.39088110156306777 		0.10476984983806066  0.7713020211676727 		Uiso   ? 		H 		0.33526
H 1.0  		1.1920430682730838 		0.5103543036608107  0.5571928792447066 		Uiso   ? 		H 		0.33526
H 1.0  		0.5685232266075217 		0.442634213367357  0.7588571040677908 		Uiso   ? 		H 		0.33526
H 1.0  		0.3578680890832627 		0.8364412601825498  0.5707691524445776 		Uiso   ? 		H 		0.33526
H 1.0  		0.7404521887216626 		0.7792717636666995  0.7683322114052008 		Uiso   ? 		H 		0.33526
H 1.0  		0.5492886700137924 		0.1840219844930808  0.53894976213238 		Uiso   ? 		H 		0.33526
H 1.0  		-0.11447979045052983 		0.09912650898027285  0.7792215138675974 		Uiso   ? 		H 		0.33526
H 1.0  		0.9965903356462351 		0.7726469722249485  0.5999015720193009 		Uiso   ? 		H 		0.33407
H 1.0  		0.6378537657149009 		0.8511630189419963  0.8424360359544969 		Uiso   ? 		H 		0.33407
H 1.0  		1.1576988712863647 		0.09912650898027285  0.6230943720690806 		Uiso   ? 		H 		0.33407
H 1.0  		-0.19029101182900404 		0.18549416036902544  0.8561537286668666 		Uiso   ? 		H 		0.33407
H 1.0  		0.332404978181134 		0.44042594955344  0.6437416208938844 		Uiso   ? 		H 		0.33407
H 1.0  		-0.02127764991350073 		0.5277750515261557  0.8520525628044056 		Uiso   ? 		H 		0.33407
H 1.0  		0.49834254850176807 		0.7748552360388655  0.5979216988443197 		Uiso   ? 		H 		0.33407
H 1.0  		0.14451732425659725 		0.8521444695259595  0.8472442993794511 		Uiso   ? 		H 		0.33407
H 1.0  		0.6560248485160814 		0.09618215722838357  0.6266298598815471 		Uiso   ? 		H 		0.33407
H 1.0  		0.3189187750091094 		0.18991068799685937  0.8568608262293599 		Uiso   ? 		H 		0.33407
H 1.0  		0.8345127789189244 		0.44508783982726474  0.6158819769316491 		Uiso   ? 		H 		0.33407
H 1.0  		0.47837423450071304 		0.5211502600844048  0.8520525628044056 		Uiso   ? 		H 		0.33407
H 1.0  		0.1942995787637284 		0.22965943664736485  0.663681772156195 		Uiso   ? 		H 		0.33474
H 1.0  		0.15967981503674178 		0.16169398370792032  1.8363323697950549 		Uiso   ? 		H 		0.33474
H 1.0  		0.38052696578388306 		0.5783197566002553  0.6973396161308753 		Uiso   ? 		H 		0.33474
H 1.0  		0.30975051645445456 		0.48606340170772405  1.8555654234948722 		Uiso   ? 		H 		0.33474
H 1.0  		0.5276204836430229 		0.8963097458042988  0.6757024307185808 		Uiso   ? 		H 		0.33474
H 1.0  		0.4769477537093293 		0.8234370399450388  1.8492015454324326 		Uiso   ? 		H 		0.33474
H 1.0  		0.6994239088824122 		0.2365295907351065  0.6831976648810096 		Uiso   ? 		H 		0.33474
H 1.0  		0.654635165083081 		0.16267543429188341  1.8422719893199984 		Uiso   ? 		H 		0.33474
H 1.0  		0.8773442627900601 		0.575375404848366  0.6918242551434277 		Uiso   ? 		H 		0.33474
H 1.0  		-0.19077772151762099 		0.4875355775836687  1.8533027112948937 		Uiso   ? 		H 		0.33474
H 1.0  		1.025999748169219 		0.896064383158308  0.6724497819311117 		Uiso   ? 		H 		0.33474
H 1.0  		-0.011400484603139305 		0.8322700952007067  0.8386177091170331 		Uiso   ? 		H 		0.33474
H 1.0  		0.4412515309109833 		0.1778879183433114  0.9155499239163023 		Uiso   ? 		H 		0.34030
H 1.0  		0.36265386556964097 		0.2654823829620179  0.6854603770809882 		Uiso   ? 		H 		0.34030
H 1.0  		0.606845133677559 		0.5103543036608107  0.9072061726788816 		Uiso   ? 		H 		0.34030
H 1.0  		0.5299890566831329 		0.6001570320934342  0.677682303893562 		Uiso   ? 		H 		0.34030
H 1.0  		0.7775889651711714 		0.8467464913141625  0.9294090361411707 		Uiso   ? 		H 		0.34030
H 1.0  		0.693341554444421 		0.9277161644911179  0.6894201234309505 		Uiso   ? 		H 		0.34030
H 1.0  		0.9502224347082235 		0.1771518304053391  0.9074890117038789 		Uiso   ? 		H 		0.34030
H 1.0  		0.8620210446437723 		0.2625380312101286  0.6950769039308968 		Uiso   ? 		H 		0.34030
H 1.0  		0.1091538042594796 		0.5145254686426539  0.906216236091391 		Uiso   ? 		H 		0.34030
H 1.0  		1.0310978241041806 		0.5994209441554619  0.6766923673060714 		Uiso   ? 		H 		0.34030
H 1.0  		0.27847362209169024 		0.8455196780842086  0.9299747141911652 		Uiso   ? 		H 		0.34030
H 1.0  		0.20080045375337835 		0.9358131318088135  0.6877230892809667 		Uiso   ? 		H 		0.34030
H 1.0  		0.6957713698674992 		0.3057218569045049  0.5393740206698759 		Uiso   ? 		H 		0.34187
H 1.0  		0.05111639310501691 		0.2365295907351065  0.7551801967428258 		Uiso   ? 		H 		0.34187
H 1.0  		0.8672994233595652 		0.6411325939738934  0.543050927994841 		Uiso   ? 		H 		0.34187
H 1.0  		0.22853075387740496 		0.5773383060162922  0.7734233138551525 		Uiso   ? 		H 		0.34187
H 1.0  		1.029975104781544 		0.9728628913534204  0.5468692548323048 		Uiso   ? 		H 		0.34187
H 1.0  		0.40310820609579673 		0.9154480321915792  0.7782315772801068 		Uiso   ? 		H 		0.34187
H 1.0  		1.192711346632557 		0.3030228677986064  0.5522431963072537 		Uiso   ? 		H 		0.34187
H 1.0  		0.5570161475993066 		0.24070075571694965  0.7679079528677049 		Uiso   ? 		H 		0.34187
H 1.0  		0.37141309983330717 		0.6421140445578566  0.5318787865074471 		Uiso   ? 		H 		0.34187
H 1.0  		0.7297029388433575 		0.5712042398665227  0.7744132504426431 		Uiso   ? 		H 		0.34187
H 1.0  		0.5237489779788919 		0.9701639022475219  0.5310302694324552 		Uiso   ? 		H 		0.34187
H 1.0  		-0.09912227440087445 		0.9105407792717637  0.7776658992301121 		Uiso   ? 		H 		0.34187
H 1.0  		0.8614114278782963 		0.33909117675925016  0.5690721182945938 		Uiso   ? 		H 		0.34090
H 1.0  		0.22444128781106876 		0.2767690646775935  0.7765345431301229 		Uiso   ? 		H 		0.34090
H 1.0  		1.0467624613405893 		0.6825988811463344  0.5379598255448894 		Uiso   ? 		H 		0.34090
H 1.0  		0.3980349808124543 		0.6065364608891942  0.7738475723926486 		Uiso   ? 		H 		0.34090
H 1.0  		1.2065179002720117 		1.007213661792129  0.5543644889947336 		Uiso   ? 		H 		0.34090
H 1.0  		0.5648830722514406 		-0.06060457355972127  0.7594227821177855 		Uiso   ? 		H 		0.34090
H 1.0  		0.3574352037037798 		0.3430169790951026  0.5704863134195803 		Uiso   ? 		H 		0.34090
H 1.0  		0.7310178586446677 		0.2767690646775935  0.7720091187301659 		Uiso   ? 		H 		0.34090
H 1.0  		0.5267966885042705 		0.6762194523505741  0.5532331328947443 		Uiso   ? 		H 		0.34090
H 1.0  		-0.10295110684971243 		0.6075179114731574  0.7673422748177103 		Uiso   ? 		H 		0.34090
H 1.0  		0.6891964622090148 		1.013347727941898  0.5808099378319823 		Uiso   ? 		H 		0.34090
H 1.0  		0.06995411507364513 		-0.05643340857787811  0.7594227821177855 		Uiso   ? 		H 		0.34090
H 1.0  		0.32456834208546115 		0.9372853076847582  0.626205601344051 		Uiso   ? 		H 		0.33914
H 1.0  		-0.013533145377235845 		0.024781627245068213  0.8510626262169149 		Uiso   ? 		H 		0.33914
H 1.0  		0.49070210554778715 		0.26106585533418397  0.6215387574315954 		Uiso   ? 		H 		0.33914
H 1.0  		0.141205863354838 		0.35381293551869664  0.8454058457169686 		Uiso   ? 		H 		0.33914
H 1.0  		0.6562892318374745 		0.598194130925508  0.627902635494035 		Uiso   ? 		H 		0.33914
H 1.0  		0.32780776612852375 		0.6985474531357346  0.8669016116167644 		Uiso   ? 		H 		0.33914
H 1.0  		0.8306805867520803 		0.9414564726666014  0.6215387574315954 		Uiso   ? 		H 		0.33914
H 1.0  		0.4954794253882845 		0.02625380312101286  0.8553052115918747 		Uiso   ? 		H 		0.33914
H 1.0  		1.001914114350315 		0.2652370203160271  1.6270314912970434 		Uiso   ? 		H 		0.33914
H 1.0  		0.643188663187788 		0.35185003435077045  0.8476685579169472 		Uiso   ? 		H 		0.33914
H 1.0  		1.162171391086068 		0.5989302188634802  0.6349736111189678 		Uiso   ? 		H 		0.33914
H 1.0  		-0.17359682540141358 		0.694867013445873  0.8630832847793007 		Uiso   ? 		H 		0.33914
H 1.0  		0.5320091335362548 		0.4019040141328884  0.6799450160935405 		Uiso   ? 		H 		0.34021
H 1.0  		0.4772791739366449 		0.31921680243399747  1.8446761210324756 		Uiso   ? 		H 		0.34021
H 1.0  		0.6927307364389876 		0.7314260476984984  0.6822077282935191 		Uiso   ? 		H 		0.34021
H 1.0  		0.6527899207809149 		0.6617430562371185  1.8405749551700146 		Uiso   ? 		H 		0.34021
H 1.0  		0.8896483707664833 		1.081067818235352  0.6990366502808592 		Uiso   ? 		H 		0.34021
H 1.0  		-0.1914494899379772 		-0.011041319069584847  1.8497672234824272 		Uiso   ? 		H 		0.34021
H 1.0  		1.0286708814381187 		0.3982235744430268  0.6761266892560768 		Uiso   ? 		H 		0.34021
H 1.0  		-0.03085936441697304 		0.316517813328099  1.870838730844727 		Uiso   ? 		H 		0.34021
H 1.0  		0.20393344605927577 		0.7414859161841202  0.6906928990434384 		Uiso   ? 		H 		0.34021
H 1.0  		0.15675036929630326 		0.6683678476788695  0.8393248066795264 		Uiso   ? 		H 		0.34021
H 1.0  		0.3920051847935725 		1.0827853567572874  0.6969153575933793 		Uiso   ? 		H 		0.34021
H 1.0  		0.3137229836258752 		-0.006624791441750908  0.8514868847544109 		Uiso   ? 		H 		0.34021
Co 1.0  		0.3875486856976067 		0.40239473942487  0.9268634849161949 		Uiso   ? 		Co 		0.49513
Co 1.0  		0.3006615824894533 		0.48360977524781634  0.7085117576182691 		Uiso   ? 		Co 		0.49513
Co 1.0  		0.5569342422206818 		0.7343703994503877  0.9141357287913158 		Uiso   ? 		Co 		0.49513
Co 1.0  		0.46556077367102394 		0.8168122485032879  0.7012993624808376 		Uiso   ? 		Co 		0.49513
Co 1.0  		0.7229134795095958 		1.0710079497497302  0.9084789482913695 		Uiso   ? 		Co 		0.49513
Co 1.0  		0.6348777343873638 		0.15163411522229855  0.6909757380684357 		Uiso   ? 		Co 		0.49513
Co 1.0  		0.8874723224981259 		0.4014132888409069  0.9265806458911975 		Uiso   ? 		Co 		0.49513
Co 1.0  		0.8002917163270421 		0.48459122583177944  0.7080874990807732 		Uiso   ? 		Co 		0.49513
Co 1.0  		0.055229671250925594 		0.737314751202277  0.9086203678038681 		Uiso   ? 		Co 		0.49513
Co 1.0  		0.9646191756824885 		0.8187751496712141  0.6953597429558941 		Uiso   ? 		Co 		0.49513
Co 1.0  		0.21620543129426822 		1.069045048581804  0.9161156019662969 		Uiso   ? 		Co 		0.49513
Co 1.0  		1.1362976000170375 		0.1523702031602709  0.6857432161059854 		Uiso   ? 		Co 		0.49513
Co 1.0  		0.4723630722995736 		0.19506330356266566  0.5365456304199029 		Uiso   ? 		Co 		0.49686
Co 1.0  		-0.1726687413623991 		0.12341741093335952  0.7606955577302733 		Uiso   ? 		Co 		0.49686
Co 1.0  		0.6341471260639542 		0.5245853371282756  0.543475186532337 		Uiso   ? 		Co 		0.49686
Co 1.0  		0.003216521235402031 		0.46201786240062814  0.7544730991803326 		Uiso   ? 		Co 		0.49686
Co 1.0  		0.80171887907236 		0.858033173029738  0.5560615231447175 		Uiso   ? 		Co 		0.49686
Co 1.0  		0.16254930096812484 		0.7930120718421828  0.7543316796678338 		Uiso   ? 		Co 		0.49686
Co 1.0  		0.9684530883753133 		0.19236431445676713  0.5349900157824176 		Uiso   ? 		Co 		0.49686
Co 1.0  		0.32969969299288926 		0.12562567474727648  0.7622511723677586 		Uiso   ? 		Co 		0.49686
Co 1.0  		1.1353216321758661 		0.5248306997742663  0.5347071767574203 		Uiso   ? 		Co 		0.49686
Co 1.0  		0.501006458689778 		0.4593188732947297  0.7529174845428472 		Uiso   ? 		Co 		0.49686
Co 1.0  		0.30000551047975593 		0.8592599862596918  0.5578999768071999 		Uiso   ? 		Co 		0.49686
Co 1.0  		0.6627664407315743 		0.7900677200902936  0.7546145186928312 		Uiso   ? 		Co 		0.49686
Co 1.0  		0.8027402959107399 		0.565560899008735  0.5781229670945078 		Uiso   ? 		Co 		0.49655
Co 1.0  		0.1700417098667278 		0.49563254490136427  0.7827570016800638 		Uiso   ? 		Co 		0.49655
Co 1.0  		0.9632341345414068 		0.8980272843262342  0.5693549573195911 		Uiso   ? 		Co 		0.49655
Co 1.0  		0.33680516915409553 		0.8312886446167436  0.7853025529050396 		Uiso   ? 		Co 		0.49655
Co 1.0  		1.1389674673959127 		0.23505741485916185  0.5677993426821059 		Uiso   ? 		Co 		0.49655
Co 1.0  		0.4992238363195939 		0.16463833545980963  0.7792215138675974 		Uiso   ? 		Co 		0.49655
Co 1.0  		0.29907284879888996 		0.5645794484247719  0.5690721182945938 		Uiso   ? 		Co 		0.49655
Co 1.0  		0.6681427455297299 		0.49440573167141044  0.7772416406926163 		Uiso   ? 		Co 		0.49655
Co 1.0  		0.46558862742253665 		0.8933653940524096  0.5788300646570012 		Uiso   ? 		Co 		0.49655
Co 1.0  		-0.1602991543381232 		0.8315340072627343  0.7875652651050181 		Uiso   ? 		Co 		0.49655
Co 1.0  		0.6391729868311629 		0.231622337815291  0.5662437280446206 		Uiso   ? 		Co 		0.49655
Co 1.0  		-0.009276264833778053 		0.15654136814211406  0.7738475723926486 		Uiso   ? 		Co 		0.49655
Co 1.0  		1.1006128859733877 		0.8187751496712141  0.6154577183941532 		Uiso   ? 		Co 		0.49736
Co 1.0  		-0.2540985269817962 		-0.0929924428305035  0.8413046798545076 		Uiso   ? 		Co 		0.49736
Co 1.0  		0.2676706448793521 		0.15286092845225244  0.6284683135440295 		Uiso   ? 		Co 		0.49736
Co 1.0  		-0.08593744690157039 		0.24290901953086663  0.8471028798669525 		Uiso   ? 		Co 		0.49736
Co 1.0  		0.4376061826519264 		0.4914613799195211  0.6215387574315954 		Uiso   ? 		Co 		0.49736
Co 1.0  		0.08315460665857435 		0.5768475807243105  0.835365060329564 		Uiso   ? 		Co 		0.49736
Co 1.0  		0.6020956675885745 		0.8217195014231035  0.617579011081633 		Uiso   ? 		Co 		0.49736
Co 1.0  		0.24702783568494724 		-0.09029345372460497  0.8454058457169686 		Uiso   ? 		Co 		0.49736
Co 1.0  		0.7688146027917914 		0.1589949946020218  0.6170133330316384 		Uiso   ? 		Co 		0.49736
Co 1.0  		0.4220126730023023 		0.24438119540681127  0.8410218408295104 		Uiso   ? 		Co 		0.49736
Co 1.0  		0.9363534864547649 		0.4919521052115026  0.6280440550065336 		Uiso   ? 		Co 		0.49736
Co 1.0  		0.5840180145618603 		0.5756207674943568  0.8405975822920143 		Uiso   ? 		Co 		0.49736
Co 1.0  		0.30414501882629763 		0.28658357051722444  0.672732620956109 		Uiso   ? 		Co 		0.49798
Co 1.0  		0.25248852967559765 		0.20536853469427815  0.8647803189292846 		Uiso   ? 		Co 		0.49798
Co 1.0  		0.4751013404922395 		0.6229757581705762  0.6687728746061467 		Uiso   ? 		Co 		0.49798
Co 1.0  		0.4174863288934648 		0.5400431838256944  0.8680329677167536 		Uiso   ? 		Co 		0.49798
Co 1.0  		0.6374242567373121 		0.9510256158602415  0.6724497819311117 		Uiso   ? 		Co 		0.49798
Co 1.0  		0.582214696870986 		0.875453920895083  0.8562951481793651 		Uiso   ? 		Co 		0.49798
Co 1.0  		0.8046973285209575 		0.28388458141132594  0.6792379185310472 		Uiso   ? 		Co 		0.49798
Co 1.0  		0.7547190101722687 		0.21027578761409366  0.8612448311168182 		Uiso   ? 		Co 		0.49798
Co 1.0  		0.9733972710818752 		0.6183138678967515  0.664106030693691 		Uiso   ? 		Co 		0.49798
Co 1.0  		-0.08456220963034955 		0.5410246344096575  0.8633661238042981 		Uiso   ? 		Co 		0.49798
Co 1.0  		1.1354683513322978 		0.95053489056826  0.6650959672811816 		Uiso   ? 		Co 		0.49798
Co 1.0  		0.08639411203559233 		0.8774168220630092  0.8548809530543786 		Uiso   ? 		Co 		0.49798
Co 1.0  		0.549166964176891 		0.23137697516930023  0.9080546897538735 		Uiso   ? 		Co 		0.51831
Co 1.0  		0.46401497283876536 		0.31946216507998826  0.6943698063684035 		Uiso   ? 		Co 		0.51831
Co 1.0  		0.7161341160137404 		0.5653155363627441  0.918519733678774 		Uiso   ? 		Co 		0.51831
Co 1.0  		0.6346601962960812 		0.6543821768573952  0.6935212892934115 		Uiso   ? 		Co 		0.51831
Co 1.0  		0.8903916724006582 		0.9002355481401513  0.9315303288286504 		Uiso   ? 		Co 		0.51831
Co 1.0  		0.8011759749197278 		0.9831681224850328  0.7018650405308323 		Uiso   ? 		Co 		0.51831
Co 1.0  		0.04969237944361518 		0.23113161252330947  0.9128629531788278 		Uiso   ? 		Co 		0.51831
Co 1.0  		0.9592374329794912 		0.31332809893021885  0.694935484418398 		Uiso   ? 		Co 		0.51831
Co 1.0  		0.2187450871814392 		0.5692413386985965  0.9159741824537984 		Uiso   ? 		Co 		0.51831
Co 1.0  		1.1366999371970476 		0.6516831877514968  0.6945112258809021 		Uiso   ? 		Co 		0.51831
Co 1.0  		0.3893333695707386 		0.904897438413976  0.929267616628672 		Uiso   ? 		Co 		0.51831
Co 1.0  		0.3042688675001022 		0.9863578368829129  0.7035620746808161 		Uiso   ? 		Co 		0.51831
Co 1.0  		0.6314695163181658 		1.0270880361173815  0.5392326011573774 		Uiso   ? 		Co 		0.51927
Co 1.0  		-0.0054993255340034485 		-0.042447737756403967  0.7479678016053942 		Uiso   ? 		Co 		0.51927
Co 1.0  		0.7987097187563789 		0.3594562763764845  0.5605869475446744 		Uiso   ? 		Co 		0.51927
Co 1.0  		0.15680831661133274 		0.2885464716851507  0.7510790308803648 		Uiso   ? 		Co 		0.51927
Co 1.0  		0.9746102554539166 		0.6951123760918638  0.5407882157948625 		Uiso   ? 		Co 		0.51927
Co 1.0  		0.33030572272238107 		0.623221120816567  0.756735811380311 		Uiso   ? 		Co 		0.51927
Co 1.0  		1.1351851068751841 		1.025615860241437  0.5379598255448894 		Uiso   ? 		Co 		0.51927
Co 1.0  		0.500750872991233 		-0.040975561880459324  0.749381996730381 		Uiso   ? 		Co 		0.51927
Co 1.0  		0.301572525918728 		0.3592109137304937  0.5573342987572053 		Uiso   ? 		Co 		0.51927
Co 1.0  		0.6600179140330914 		0.2890371969771322  0.7573014894303057 		Uiso   ? 		Co 		0.51927
Co 1.0  		0.4745398671719323 		0.6970752772597901  0.5375355670073935 		Uiso   ? 		Co 		0.51927
Co 1.0  		-0.16960263997840158 		0.6212582196486407  0.757584328455303 		Uiso   ? 		Co 		0.51927
Co 1.0  		0.966043221668924 		0.39748748650505455  0.5764259329445239 		Uiso   ? 		Co 		0.51695
Co 1.0  		0.33691762273219317 		0.331730297379527  0.7823327431425678 		Uiso   ? 		Co 		0.51695
Co 1.0  		1.138110137641682 		0.7314260476984984  0.5648295329196341 		Uiso   ? 		Co 		0.51695
Co 1.0  		0.49976412735822134 		0.6612523309451369  0.7862924894925302 		Uiso   ? 		Co 		0.51695
Co 1.0  		0.3004061594588191 		1.0619295318480717  0.5782643866070065 		Uiso   ? 		Co 		0.51695
Co 1.0  		0.6700055850775917 		-0.001226813229953872  0.7725747967801606 		Uiso   ? 		Co 		0.51695
Co 1.0  		0.4649256566250284 		0.3965060359210914  0.5711934109820737 		Uiso   ? 		Co 		0.51695
Co 1.0  		-0.16635771338042984 		0.33025812150358236  0.7885552016925087 		Uiso   ? 		Co 		0.51695
Co 1.0  		0.6369685008752022 		0.7316714103444892  0.5670922451196126 		Uiso   ? 		Co 		0.51695
Co 1.0  		0.0038866014548111782 		0.6639513200510355  0.775686026055131 		Uiso   ? 		Co 		0.51695
Co 1.0  		0.7976331627099187 		1.0619295318480717  0.5802442597819877 		Uiso   ? 		Co 		0.51695
Co 1.0  		0.1708990396209584 		-0.0007360879379723231  0.7735647333676511 		Uiso   ? 		Co 		0.51695
Co 1.0  		0.2699789171334395 		0.6568358033173031  0.6293168306190215 		Uiso   ? 		Co 		0.51852
Co 1.0  		-0.07882291347450454 		0.7488467955638435  0.8379106115545398 		Uiso   ? 		Co 		0.51852
Co 1.0  		0.43666784010709503 		0.9897929139267838  0.6204074013316061 		Uiso   ? 		Co 		0.51852
Co 1.0  		0.08773815147843994 		0.07900677200902935  0.8349408017920681 		Uiso   ? 		Co 		0.51852
Co 1.0  		0.6017655455763171 		0.3187260771420159  0.6161648159566465 		Uiso   ? 		Co 		0.51852
Co 1.0  		0.24819032314082684 		0.40926489351261164  0.8411632603420091 		Uiso   ? 		Co 		0.51852
Co 1.0  		0.7668378811078965 		0.6560997153793307  0.6225286940190861 		Uiso   ? 		Co 		0.51852
Co 1.0  		0.4193109915339297 		0.7481107076258711  0.8422946164419983 		Uiso   ? 		Co 		0.51852
Co 1.0  		0.9379080849098713 		0.9910197271567377  0.626205601344051 		Uiso   ? 		Co 		0.51852
Co 1.0  		0.5914713372811542 		0.08096967317695555  0.830415377392111 		Uiso   ? 		Co 		0.51852
Co 1.0  		1.104624698967129 		0.321915791539896  0.6157405574191505 		Uiso   ? 		Co 		0.51852
Co 1.0  		-0.2505481830391638 		0.4104917067425656  0.8420117774170008 		Uiso   ? 		Co 		0.51852
Co 1.0  		0.4747259321506844 		1.1186083030719405  0.6680657770436534 		Uiso   ? 		Co 		0.51774
Co 1.0  		0.4150729721261924 		0.0392580233585239  0.8625176067293061 		Uiso   ? 		Co 		0.51774
Co 1.0  		0.6351664490743526 		0.4509765433310433  0.6658030648436749 		Uiso   ? 		Co 		0.51774
Co 1.0  		0.5838057840325424 		0.3741780351359309  1.8559896820323682 		Uiso   ? 		Co 		0.51774
Co 1.0  		0.8027382020827585 		0.7844243792325057  0.6752781721810849 		Uiso   ? 		Co 		0.51774
Co 1.0  		0.7525145242163082 		0.7103248601432919  0.8636489628292954 		Uiso   ? 		Co 		0.51774
Co 1.0  		0.9776748959549448 		1.1215526548238297  0.6689142941186453 		Uiso   ? 		Co 		0.51774
Co 1.0  		-0.08707417443391864 		0.038767298066542354  0.8571436652543571 		Uiso   ? 		Co 		0.51774
Co 1.0  		1.136365026908849 		0.4499950927470802  0.6689142941186453 		Uiso   ? 		Co 		0.51774
Co 1.0  		0.08052165029707148 		0.3709883207380509  0.8656288360042766 		Uiso   ? 		Co 		0.51774
Co 1.0  		0.3022493099330037 		0.7817253901266071  0.6747124941310902 		Uiso   ? 		Co 		0.51774
Co 1.0  		0.2518548088625039 		0.7098341348513102  0.8618105091668129 		Uiso   ? 		Co 		0.51774
