generated by VMD, t= 0.000000
_cell_length_a  47.061
_cell_length_b  47.061 
_cell_length_c  77.7283
_cell_angle_alpha 90.0
_cell_angle_beta  90.0
_cell_angle_gamma 120
_space_group_name_H-M_alt    'P 1'
space_group_IT_number      1  
 
loop_ 
    _atom_site_label 
    _atom_site_occupancy 
    _atom_site_fract_x 
    _atom_site_fract_y 
    _atom_site_fract_z 
    _atom_site_adp_type 
    _atom_site_U_iso_or_equiv 
    _atom_site_type_symbol 
   _atom_site_charge
C 1.0  		0.2827013663097226 		0.08857591520266955  0.423655219527508 		Uiso   ? 		C 		0.65367
C 1.0  		0.2864401287021002 		0.5932868780056925  0.4213394606597597 		Uiso   ? 		C 		0.54468
C 1.0  		0.7834772849455193 		0.09397389341446659  0.4233979129866471 		Uiso   ? 		C 		0.54544
C 1.0  		0.7891766023340312 		0.5962312297575818  0.42159676720062067 		Uiso   ? 		C 		0.54775
C 1.0  		0.25365216936251295 		0.01177740700755717  0.4546606577012491 		Uiso   ? 		C 		0.54712
C 1.0  		0.24815524630842425 		0.5150161939346355  0.44797068763886516 		Uiso   ? 		C 		-0.13819
C 1.0  		0.7516569181351778 		0.015457846697418787  0.45350277826737495 		Uiso   ? 		C 		0.54273
C 1.0  		0.7537943671852158 		0.5216409853763864  0.4529881651856531 		Uiso   ? 		C 		0.54364
C 1.0  		0.4507930716541783 		0.031651781332809895  0.4410234110356202 		Uiso   ? 		C 		-0.13442
C 1.0  		0.4436420495206625 		0.5260575130042203  0.44758472782757375 		Uiso   ? 		C 		0.12425
C 1.0  		0.9485019963179534 		0.030915693394837573  0.4508010595883353 		Uiso   ? 		C 		0.12399
C 1.0  		0.9392959664829359 		0.5152615565806262  0.4441110895259513 		Uiso   ? 		C 		0.12427
C 1.0  		0.43144044526845327 		0.21223868878201985  0.4457835820415473 		Uiso   ? 		C 		-0.07384
C 1.0  		0.43568520079609074 		0.7149867504171166  0.44565492877111684 		Uiso   ? 		C 		-0.13482
C 1.0  		0.9283322785883426 		0.21199332613602906  0.4443683960668122 		Uiso   ? 		C 		-0.13502
C 1.0  		0.9441237185895275 		0.7110609480812642  0.44423974279638173 		Uiso   ? 		C 		-0.07406
C 1.0  		0.14512674602912873 		0.1236627735793503  0.4513156726700571 		Uiso   ? 		C 		-0.07390
C 1.0  		0.15208573035188155 		0.6288644616743548  0.451572979210918 		Uiso   ? 		C 		0.12125
C 1.0  		0.6475345262067378 		0.12169987241142409  0.4457835820415473 		Uiso   ? 		C 		0.12145
C 1.0  		0.6485109163588316 		0.626410835214447  0.4546606577012491 		Uiso   ? 		C 		0.12162
C 1.0  		0.20823168491908026 		0.11090391598783003  0.40409992242207793 		Uiso   ? 		C 		-0.02699
C 1.0  		0.20386063027154416 		0.6087447247031113  0.40667298783068717 		Uiso   ? 		C 		-0.08033
C 1.0  		0.7029000084793777 		0.1091863774658946  0.40242742990648195 		Uiso   ? 		C 		-0.08037
C 1.0  		0.7148953393931341 		0.6197860437726961  0.4037139626107865 		Uiso   ? 		C 		-0.08014
C 1.0  		0.1438885700285012 		0.3145549121601728  0.44295321009207717 		Uiso   ? 		C 		-0.13470
C 1.0  		0.15015961924313737 		0.8158307979193249  0.4344620942436667 		Uiso   ? 		C 		-0.13470
C 1.0  		0.6468680820322344 		0.3116105604082835  0.4522162455630704 		Uiso   ? 		C 		-0.02735
C 1.0  		0.645180707980341 		0.8177936990872511  0.4477133810980042 		Uiso   ? 		C 		-0.02770
C 1.0  		0.33483622216214765 		0.316517813328099  0.45543257732383186 		Uiso   ? 		C 		-0.02746
C 1.0  		0.34499783316957977 		0.8187751496712141  0.4394795717904547 		Uiso   ? 		C 		-0.13825
C 1.0  		0.8390513293775375 		0.3177446265580528  0.4423099437399249 		Uiso   ? 		C 		-0.13813
C 1.0  		0.8397735623890217 		0.8202473255471587  0.4502864465066134 		Uiso   ? 		C 		-0.13835
C 1.0  		0.0750484903136337 		0.10845028952792228  0.4025560831769124 		Uiso   ? 		C 		-0.02782
C 1.0  		0.0763359786743536 		0.6146334282068898  0.39766725890055493 		Uiso   ? 		C 		-0.02819
C 1.0  		0.5722491006961896 		0.10329767396211602  0.40898874669843543 		Uiso   ? 		C 		0.65149
C 1.0  		0.576375818756865 		0.6185592305427422  0.3999830177683032 		Uiso   ? 		C 		0.65184
C 1.0  		0.20975974452162047 		0.9188831092354501  0.39535150003280656 		Uiso   ? 		C 		0.65479
C 1.0  		0.21292159682604367 		0.42202375110413193  0.39946840468658135 		Uiso   ? 		C 		0.65505
C 1.0  		0.7055562576344299 		0.9181470212974777  0.39457958041022384 		Uiso   ? 		C 		-0.13858
C 1.0  		0.7032896523486225 		0.41638041024634415  0.39702399254840254 		Uiso   ? 		C 		-0.02771
C 1.0  		0.0445392289506404 		0.08440475022082639  0.3959947663849589 		Uiso   ? 		C 		-0.02669
C 1.0  		0.047509043444300736 		0.587152811855923  0.3920065150016146 		Uiso   ? 		C 		-0.13456
C 1.0  		0.5444299964057273 		0.08293257434488174  0.3983105252527072 		Uiso   ? 		C 		0.65158
C 1.0  		0.5468216025963749 		0.5913239768377663  0.39342170097634965 		Uiso   ? 		C 		-0.02778
C 1.0  		0.3786605225161491 		0.25542251447639613  0.4064156812898262 		Uiso   ? 		C 		0.65194
C 1.0  		0.3799392132540211 		0.7598881146334283  0.4057724149376739 		Uiso   ? 		C 		0.57010
C 1.0  		0.8800234470778063 		0.25689469035234075  0.4078308672645613 		Uiso   ? 		C 		0.56676
C 1.0  		0.8828617841897379 		0.7576798508195113  0.40178416355432967 		Uiso   ? 		C 		0.56336
C 1.0  		0.2578394645361107 		0.9181470212974777  0.41722255600598496 		Uiso   ? 		C 		0.56392
C 1.0  		0.25411829738942876 		0.4168711355383257  0.42391252606836893 		Uiso   ? 		C 		0.57325
C 1.0  		0.7446063058978947 		0.9206006477573855  0.42326925971621665 		Uiso   ? 		C 		0.56885
C 1.0  		0.7480440659195524 		0.41834331141427034  0.4227546466344948 		Uiso   ? 		C 		0.65227
C 1.0  		0.23671593516898753 		0.9485719894003338  0.4010122439317469 		Uiso   ? 		C 		-0.02852
C 1.0  		0.22837692529907253 		0.4465600157032094  0.4115618121070447 		Uiso   ? 		C 		0.65122
C 1.0  		0.7277237823545144 		0.9493080773383061  0.4031993495290647 		Uiso   ? 		C 		-0.02833
C 1.0  		0.7262085297217286 		0.44606929041122784  0.40422857569250836 		Uiso   ? 		C 		-0.02720
C 1.0  		0.3573897547065712 		0.26302875650211016  0.41619332984254126 		Uiso   ? 		C 		0.65408
C 1.0  		0.3622150396831809 		0.7665129060751792  0.41825178216942865 		Uiso   ? 		C 		0.65560
C 1.0  		0.8535607835729117 		0.2583668662282854  0.415550063490389 		Uiso   ? 		C 		0.56822
C 1.0  		0.8595230557248812 		0.764550004907253  0.41091854575489234 		Uiso   ? 		C 		0.57141
C 1.0  		0.047098882563422026 		0.13372264206497206  0.41722255600598496 		Uiso   ? 		C 		-0.13850
C 1.0  		0.04272550676992659 		0.6251840219844932  0.41863774198072 		Uiso   ? 		C 		0.57175
C 1.0  		0.5434254605340755 		0.12979683972911965  0.42185407374148154 		Uiso   ? 		C 		0.56527
C 1.0  		0.5426514647164051 		0.6305820001962902  0.420310234496316 		Uiso   ? 		C 		0.57007
C 1.0  		0.3313640505781333 		0.20757679850819513  0.42764347091085225 		Uiso   ? 		C 		0.57134
C 1.0  		0.3346032963121396 		0.7095887722053195  0.42764347091085225 		Uiso   ? 		C 		0.65514
C 1.0  		0.8208404784431138 		0.19972519383649034  0.41130450556618375 		Uiso   ? 		C 		-0.13514
C 1.0  		0.834592671803523 		0.7095887722053195  0.42391252606836893 		Uiso   ? 		C 		0.65942
C 1.0  		0.382417967735191 		0.9237903621552656  0.3949655402215152 		Uiso   ? 		C 		0.65956
C 1.0  		0.3774218595545319 		0.4225144763961135  0.3961234196553894 		Uiso   ? 		C 		0.54322
C 1.0  		0.7958909737430236 		0.923299636863284  0.39676668600754167 		Uiso   ? 		C 		0.54324
C 1.0  		0.8829271819036353 		0.4207969378741781  0.4019128168247601 		Uiso   ? 		C 		-0.12901
C 1.0  		0.04417459840092561 		0.25026989891058987  0.3981818719822768 		Uiso   ? 		C 		0.54323
C 1.0  		0.047979099484167675 		0.7559623122975758  0.3999830177683032 		Uiso   ? 		C 		0.54324
C 1.0  		0.5435769679664485 		0.25419570124644225  0.4008835906613164 		Uiso   ? 		C 		0.54322
C 1.0  		0.544529286395958 		0.760133477279419  0.40204147009519053 		Uiso   ? 		C 		0.54323
C 1.0  		0.21439341295564696 		0.0871037393267249  0.39676668600754167 		Uiso   ? 		C 		0.54322
C 1.0  		0.211617195173562 		0.5881342624398862  0.3968953392779721 		Uiso   ? 		C 		0.54323
C 1.0  		0.7087506383073182 		0.08391402492884485  0.39676668600754167 		Uiso   ? 		C 		0.54322
C 1.0  		0.718947439806142 		0.5930415153597016  0.3971526458188331 		Uiso   ? 		C 		0.54323
C 1.0  		0.26134072343662873 		0.9497988026302876  0.4115618121070447 		Uiso   ? 		C 		0.54322
C 1.0  		0.2568024649460609 		0.4490136421631171  0.41915235506244186 		Uiso   ? 		C 		0.54323
C 1.0  		0.7493496364869578 		0.9517617037982138  0.41593602330168034 		Uiso   ? 		C 		0.60502
C 1.0  		0.7510546057845472 		0.4490136421631171  0.4158073700312499 		Uiso   ? 		C 		0.60536
C 1.0  		0.3383820374718503 		0.9198645598194132  0.41992427468502463 		Uiso   ? 		C 		0.60502
C 1.0  		0.33432570039395804 		0.41834331141427034  0.4226259933640643 		Uiso   ? 		C 		0.60528
C 1.0  		0.8357974591726951 		0.9210913730493671  0.42224003355277295 		Uiso   ? 		C 		0.60501
C 1.0  		0.8321485071937661 		0.41613504760035336  0.4233979129866471 		Uiso   ? 		C 		0.60530
C 1.0  		0.04137838289323015 		0.20217882029639808  0.4214681139301901 		Uiso   ? 		C 		0.60501
C 1.0  		0.04706010503604641 		0.7010010795956425  0.41233373172962745 		Uiso   ? 		C 		-0.13523
C 1.0  		0.5397270992199533 		0.2078221611541859  0.4254563653135344 		Uiso   ? 		C 		0.60541
C 1.0  		0.543406599398355 		0.706889783099421  0.4164506363834022 		Uiso   ? 		C 		-0.13061
C 1.0  		0.24734099539652102 		0.11900088330552558  0.42725751109956095 		Uiso   ? 		C 		0.60501
C 1.0  		0.25376991486142975 		0.6273922857984101  0.4242984858796603 		Uiso   ? 		C 		0.60537
C 1.0  		0.7470961301389502 		0.12660712533123958  0.4244271391500908 		Uiso   ? 		C 		0.60502
C 1.0  		0.7568086890791389 		0.6300912749043086  0.42622828493611725 		Uiso   ? 		C 		0.60536
C 1.0  		0.2080227171326675 		0.3901266071253313  0.40345665606992565 		Uiso   ? 		C 		-0.13390
C 1.0  		0.20483679310566 		0.8882127784866033  0.40204147009519053 		Uiso   ? 		C 		-0.24297
C 1.0  		0.6981870801057646 		0.3862008047894789  0.40345665606992565 		Uiso   ? 		C 		-0.24540
C 1.0  		0.7042544367709191 		0.8891942290705664  0.39908244487528993 		Uiso   ? 		C 		-0.24297
C 1.0  		0.5163331502130609 		0.08538620080478948  0.3993397514161509 		Uiso   ? 		C 		-0.24537
C 1.0  		0.5157628469448721 		0.5844538227500247  0.3999830177683032 		Uiso   ? 		C 		-0.24297
C 1.0  		0.014380898579583582 		0.0814603984689371  0.4006262841204555 		Uiso   ? 		C 		-0.24541
C 1.0  		0.01661231337399932 		0.5763568554323291  0.4011408972021773 		Uiso   ? 		C 		0.11549
C 1.0  		0.23010409980924282 		0.38669153008146046  0.41439218405651485 		Uiso   ? 		C 		0.11549
C 1.0  		0.2311767768516738 		0.8864952399646678  0.4095033597801573 		Uiso   ? 		C 		0.11549
C 1.0  		0.7210702800264894 		0.3852193542055158  0.4160646765721108 		Uiso   ? 		C 		0.11542
C 1.0  		0.7214902124521955 		0.8879674158406126  0.4134916111635016 		Uiso   ? 		C 		-0.13523
C 1.0  		0.35793179859621305 		0.20291490823437042  0.41979562141459414 		Uiso   ? 		C 		0.12004
C 1.0  		0.3612039136756515 		0.7054176072234764  0.41889504852158094 		Uiso   ? 		C 		0.11543
C 1.0  		0.8525584551882303 		0.19898910589851804  0.4124623850000579 		Uiso   ? 		C 		0.12007
C 1.0  		0.8602447204414203 		0.7039454313475317  0.4149067971382367 		Uiso   ? 		C 		-0.13060
C 1.0  		0.5131046176208275 		0.10697811365197764  0.4111758522957533 		Uiso   ? 		C 		0.11543
C 1.0  		0.5124685756617744 		0.6050642850132497  0.412205078459197 		Uiso   ? 		C 		0.12008
C 1.0  		0.01423463405910811 		0.1062420257140053  0.4107898924844619 		Uiso   ? 		C 		-0.08709
C 1.0  		0.011626918335113257 		0.5986848562174895  0.4095033597801573 		Uiso   ? 		C 		-0.08943
C 1.0  		0.35005596266224204 		0.38988124447934047  0.4008835906613164 		Uiso   ? 		C 		-0.13390
C 1.0  		0.36401832504902143 		0.8933653940524096  0.4031993495290647 		Uiso   ? 		C 		-0.08709
C 1.0  		0.8554145335298804 		0.3891451565413682  0.4051291485855216 		Uiso   ? 		C 		-0.08943
C 1.0  		0.7936077148084661 		0.8923839434684464  0.3999830177683032 		Uiso   ? 		C 		-0.08709
C 1.0  		0.39033985328634907 		0.9532338796741584  0.40422857569250836 		Uiso   ? 		C 		-0.08943
C 1.0  		0.37869081107261027 		0.4509765433310433  0.4010122439317469 		Uiso   ? 		C 		-0.08930
C 1.0  		0.8243017262512653 		0.9524977917361862  0.4019128168247601 		Uiso   ? 		C 		-0.08573
C 1.0  		0.8878237404510521 		0.44631465305721857  0.412205078459197 		Uiso   ? 		C 		-0.08930
C 1.0  		0.512765406017677 		0.23039552458533713  0.40667298783068717 		Uiso   ? 		C 		-0.08572
C 1.0  		0.5136760574789063 		0.734125036804397  0.40705894764197853 		Uiso   ? 		C 		-0.08930
C 1.0  		0.01203763082704895 		0.22254391991363237  0.40307069625863423 		Uiso   ? 		C 		-0.08570
C 1.0  		0.016275909877797923 		0.7299538718225538  0.4050004953150912 		Uiso   ? 		C 		0.11818
C 1.0  		0.32963931087291143 		0.38644616743546967  0.41503545040866713 		Uiso   ? 		C 		-0.12902
C 1.0  		0.33564092884720165 		0.888458141132594  0.4124623850000579 		Uiso   ? 		C 		-0.13070
C 1.0  		0.8289014054338577 		0.38669153008146046  0.41529275694952805 		Uiso   ? 		C 		0.11818
C 1.0  		0.8130822743490707 		0.8896849543625479  0.41271969154091886 		Uiso   ? 		C 		0.11818
C 1.0  		0.5099696774709712 		0.20610462263225046  0.4178658223581373 		Uiso   ? 		C 		0.11809
C 1.0  		0.5113687268217647 		0.7044361566395133  0.41104719902532283 		Uiso   ? 		C 		-0.13523
C 1.0  		0.009912242142763969 		0.19874374325252728  0.41426353078608436 		Uiso   ? 		C 		0.12080
C 1.0  		0.013813030116343161 		0.6995289037196978  0.408860093428005 		Uiso   ? 		C 		-0.03262
C 1.0  		0.2218447231809149 		0.3506232211208166  0.41812312889899816 		Uiso   ? 		C 		0.11809
C 1.0  		0.22772366139632427 		0.8523898321719503  0.41091854575489234 		Uiso   ? 		C 		0.12086
C 1.0  		0.7163991646051793 		0.35037785847482583  0.4209535008484683 		Uiso   ? 		C 		0.11810
C 1.0  		0.719434717789704 		0.8541073706938856  0.4177371690877068 		Uiso   ? 		C 		0.12087
C 1.0  		0.48021678435491894 		0.10452448719206989  0.4132343046226407 		Uiso   ? 		C 		-0.24315
C 1.0  		0.4769803957367834 		0.5986848562174895  0.4160646765721108 		Uiso   ? 		C 		-0.13393
C 1.0  		0.980107551810006 		0.10305231131612523  0.41619332984254126 		Uiso   ? 		C 		-0.24404
C 1.0  		0.9751448489446904 		0.5920600647757386  0.4124623850000579 		Uiso   ? 		C 		-0.24315
C 1.0  		0.30025359677051133 		0.3506232211208166  0.4204388877667464 		Uiso   ? 		C 		-0.24407
C 1.0  		0.30440854188470023 		0.8536166454019041  0.41091854575489234 		Uiso   ? 		C 		-0.24315
C 1.0  		0.7964598161282435 		0.35283148493473354  0.41593602330168034 		Uiso   ? 		C 		-0.24411
C 1.0  		0.7995763821033689 		0.8545980959858672  0.4200529279554551 		Uiso   ? 		C 		-0.08678
C 1.0  		0.47585455965526446 		0.17739719305132987  0.4194096616033028 		Uiso   ? 		C 		-0.08730
C 1.0  		0.475577759350006 		0.6745019138286388  0.41503545040866713 		Uiso   ? 		C 		-0.08678
C 1.0  		0.9737495816228254 		0.1715084895475513  0.41889504852158094 		Uiso   ? 		C 		-0.08730
C 1.0  		0.9770939118700168 		0.6703307488467957  0.4118191186479056 		Uiso   ? 		C 		-0.08678
C 1.0  		0.23263885376148344 		0.0755716949651585  0.40551510839681304 		Uiso   ? 		C 		-0.08730
C 1.0  		0.2365090935355899 		0.5822455589361076  0.4028133897177733 		Uiso   ? 		C 		-0.08723
C 1.0  		0.7295635564268048 		0.07581705761114928  0.40693029437154804 		Uiso   ? 		C 		-0.13523
C 1.0  		0.7398501683390772 		0.5846991853960154  0.4053864551263825 		Uiso   ? 		C 		-0.08611
C 1.0  		0.0780326373100847 		0.13396800471096282  0.4128483448113493 		Uiso   ? 		C 		-0.08723
C 1.0  		0.07685773287033945 		0.6335263519481794  0.41207642518876647 		Uiso   ? 		C 		-0.08607
C 1.0  		0.5741795944538408 		0.13053292766709199  0.41812312889899816 		Uiso   ? 		C 		-0.08723
C 1.0  		0.5763258411267267 		0.6384336048679949  0.4134916111635016 		Uiso   ? 		C 		-0.08605
C 1.0  		0.328652629889967 		0.23530277750515263  0.42211138028234246 		Uiso   ? 		C 		-0.13061
C 1.0  		0.33338810445312794 		0.7390322897242124  0.4227546466344948 		Uiso   ? 		C 		-0.13391
C 1.0  		0.8227075546558602 		0.23235842575326332  0.41091854575489234 		Uiso   ? 		C 		-0.13061
C 1.0  		0.8308188002537091 		0.737314751202277  0.41812312889899816 		Uiso   ? 		C 		-0.03262
C 1.0  		0.38253300210225955 		0.22916871135538328  0.4104039326731705 		Uiso   ? 		C 		-0.13070
C 1.0  		0.3847514639428983 		0.7333889488664246  0.4080881738054222 		Uiso   ? 		C 		-0.12903
C 1.0  		0.8820075868355354 		0.22941407400137406  0.4124623850000579 		Uiso   ? 		C 		-0.13070
C 1.0  		0.8831372049459828 		0.7284816959466092  0.4046145355037998 		Uiso   ? 		C 		-0.12901
C 1.0  		0.2913310387105852 		0.9851310236529591  0.4154214102199585 		Uiso   ? 		C 		-0.03261
C 1.0  		0.2872747016326929 		0.48360977524781634  0.41722255600598496 		Uiso   ? 		C 		-0.03262
C 1.0  		0.7829434870676684 		0.98537638629895  0.4158073700312499 		Uiso   ? 		C 		-0.03254
C 1.0  		0.7823527314379131 		0.48483658847777017  0.41735120927641545 		Uiso   ? 		C 		-0.13514
C 1.0  		0.07427550074297626 		0.23015016193934637  0.4149067971382367 		Uiso   ? 		C 		-0.03209
C 1.0  		0.07924753720105104 		0.7326528609284524  0.41027527940274006 		Uiso   ? 		C 		-0.03254
C 1.0  		0.572133498034176 		0.23481205221317109  0.4195383148737333 		Uiso   ? 		C 		-0.03210
C 1.0  		0.5765578743887108 		0.7370693885562862  0.41297699808177973 		Uiso   ? 		C 		-0.13514
C 1.0  		0.35861460445142107 		0.1702816763175974  0.4185090887102896 		Uiso   ? 		C 		-0.13515
C 1.0  		0.36054603980601807 		0.6718029247227403  0.41722255600598496 		Uiso   ? 		C 		-0.13523
C 1.0  		0.8557670713888085 		0.16758268721169892  0.4146494905973757 		Uiso   ? 		C 		-0.03254
C 1.0  		0.8633306568831176 		0.6722936500147219  0.4167079429242631 		Uiso   ? 		C 		-0.13392
C 1.0  		0.30765991263452674 		0.9846402983609776  0.47884747254217574 		Uiso   ? 		C 		-0.13523
C 1.0  		0.29894638701108067 		0.4865541269997056  0.4765317136744275 		Uiso   ? 		C 		-0.13391
C 1.0  		0.7985362824383249 		0.9834134851310238  0.47730363329701025 		Uiso   ? 		C 		-0.03221
C 1.0  		0.7989204884027279 		0.4894984787515949  0.47820420619002346 		Uiso   ? 		C 		-0.12900
C 1.0  		0.4801621644328619 		0.11164000392580235  0.47524518097012286 		Uiso   ? 		C 		-0.03209
C 1.0  		0.47404720029245007 		0.6008931200314064  0.4767890202152884 		Uiso   ? 		C 		-0.03222
C 1.0  		0.9741601481307385 		0.10943174011188538  0.47949073889432803 		Uiso   ? 		C 		-0.03214
C 1.0  		0.9726935749130327 		0.5935322406516832  0.474730567888401 		Uiso   ? 		C 		-0.03237
C 1.0  		0.3537074140961867 		0.16046717047796646  0.4800053519760499 		Uiso   ? 		C 		-0.03214
C 1.0  		0.3610649858950549 		0.6605162430071647  0.479748045435189 		Uiso   ? 		C 		0.65790
C 1.0  		0.8511557051424637 		0.16218470899990187  0.47691767348571884 		Uiso   ? 		C 		-0.03239
C 1.0  		0.8744347657663102 		0.6651781332809893  0.4776895931083016 		Uiso   ? 		C 		0.65790
C 1.0  		0.1163188669277407 		0.17101776425556972  0.481420537950785 		Uiso   ? 		C 		0.65813
C 1.0  		0.12800309963287107 		0.6801452546864265  0.4796193921647586 		Uiso   ? 		C 		0.65790
C 1.0  		0.6238088159955627 		0.16561978604377273  0.48232111084379825 		Uiso   ? 		C 		0.65813
C 1.0  		0.6183142140874334 		0.6752380017666111  0.48270707065508955 		Uiso   ? 		C 		0.65811
C 1.0  		0.21417516058539662 		0.3408087152811856  0.47781824637873205 		Uiso   ? 		C 		0.65779
C 1.0  		0.2250270278469048 		0.8533712827559133  0.47125692958677856 		Uiso   ? 		C 		-0.13514
C 1.0  		0.7192619790667294 		0.33442928648542547  0.4832216837368114 		Uiso   ? 		C 		0.65811
C 1.0  		0.7195134094343454 		0.8457650407301993  0.47949073889432803 		Uiso   ? 		C 		0.65779
C 1.0  		0.2838852633652601 		0.24266365688487587  0.4846368697115465 		Uiso   ? 		C 		0.65942
C 1.0  		0.29256824078923344 		0.7466385317499264  0.4765317136744275 		Uiso   ? 		C 		0.65957
C 1.0  		0.7962319381971885 		0.24315438217685742  0.4757597940518447 		Uiso   ? 		C 		0.65942
C 1.0  		0.7935061850062315 		0.7481107076258711  0.48412225662982467 		Uiso   ? 		C 		0.65957
C 1.0  		0.11347083960493726 		0.16022180783197568  0.4192810083328723 		Uiso   ? 		C 		0.65955
C 1.0  		0.11354680447658494 		0.6610069682991462  0.41812312889899816 		Uiso   ? 		C 		0.65944
C 1.0  		0.6088511699959355 		0.16120325841593877  0.4200529279554551 		Uiso   ? 		C 		0.65955
C 1.0  		0.6121561544208062 		0.6641966826970263  0.4206961943076074 		Uiso   ? 		C 		0.65945
C 1.0  		0.22797616266102044 		0.1312690156050643  0.4167079429242631 		Uiso   ? 		C 		-0.03254
C 1.0  		0.22860858525905595 		0.634017077240161  0.4167079429242631 		Uiso   ? 		C 		-0.03212
C 1.0  		0.7240268329144395 		0.13274119148100896  0.4146494905973757 		Uiso   ? 		C 		-0.03254
C 1.0  		0.731656157099613 		0.6384336048679949  0.41812312889899816 		Uiso   ? 		C 		-0.03211
C 1.0  		0.2972786206989089 		0.23800176661105116  0.4223686868232034 		Uiso   ? 		C 		-0.03254
C 1.0  		0.30318163063690257 		0.7385415644322308  0.4183804354398591 		Uiso   ? 		C 		-0.03206
C 1.0  		0.7936227939152583 		0.2375110413190696  0.413620264433932 		Uiso   ? 		C 		-0.13061
C 1.0  		0.8007044579968918 		0.7429580920600648  0.42121080738932926 		Uiso   ? 		C 		-0.03261
C 1.0  		0.36678631350320345 		0.9537246049661401  0.415550063490389 		Uiso   ? 		C 		-0.03221
C 1.0  		0.35956669556295257 		0.4509765433310433  0.4147781438678062 		Uiso   ? 		C 		-0.03262
C 1.0  		0.8459428544834452 		0.9520070664442046  0.41413487751565387 		Uiso   ? 		C 		0.65790
C 1.0  		0.8614508873596061 		0.4475414662871725  0.4196669681441637 		Uiso   ? 		C 		0.65813
C 1.0  		0.2523657362577278 		0.09250171753852195  0.4200529279554551 		Uiso   ? 		C 		0.65790
C 1.0  		0.2569303876168393 		0.5984394935714987  0.4183804354398591 		Uiso   ? 		C 		0.65813
C 1.0  		0.7527495438942975 		0.09839042104230053  0.41889504852158094 		Uiso   ? 		C 		0.65811
C 1.0  		0.7625695084936308 		0.6050642850132497  0.4176085158172763 		Uiso   ? 		C 		0.65778
C 1.0  		0.11088307259763125 		0.23579350279713418  0.4183804354398591 		Uiso   ? 		C 		0.65811
C 1.0  		0.1159449194691547 		0.7380508391402494  0.4134916111635016 		Uiso   ? 		C 		0.65779
C 1.0  		0.6075230699228702 		0.23971930513298656  0.4223686868232034 		Uiso   ? 		C 		0.65811
C 1.0  		0.6127974069667232 		0.7419766414761018  0.4178658223581373 		Uiso   ? 		C 		0.65779
C 1.0  		0.2232143765632712 		0.16169398370792032  0.4200529279554551 		Uiso   ? 		C 		-0.13070
C 1.0  		0.22603743957546635 		0.6654234959269801  0.41863774198072 		Uiso   ? 		C 		0.65811
C 1.0  		0.7169517266436497 		0.1619393463539111  0.4177371690877068 		Uiso   ? 		C 		0.65777
C 1.0  		0.7230278809316522 		0.666650309156934  0.42378387279793844 		Uiso   ? 		C 		0.65790
C 1.0  		0.2852061403574354 		0.3464520561389734  0.4825784173846591 		Uiso   ? 		C 		0.65813
C 1.0  		0.3001017973700931 		0.8543527333398765  0.47202884920936133 		Uiso   ? 		C 		-0.03221
C 1.0  		0.7971671806670255 		0.3427716164491118  0.4785901660013149 		Uiso   ? 		C 		0.65813
C 1.0  		0.7921216308261396 		0.8511630189419963  0.4824497641142287 		Uiso   ? 		C 		-0.03214
C 1.0  		0.11190617763695822 		0.23996466777897735  0.4774322865674407 		Uiso   ? 		C 		-0.03237
C 1.0  		0.12132523361421665 		0.7454117185199726  0.47228615575022226 		Uiso   ? 		C 		-0.03214
C 1.0  		0.6173763094946702 		0.23137697516930023  0.48129188468035455 		Uiso   ? 		C 		-0.03238
C 1.0  		0.616532419655206 		0.7422220041220925  0.48026265851691086 		Uiso   ? 		C 		-0.03214
C 1.0  		0.07421904663594947 		0.2546864265384238  0.4050004953150912 		Uiso   ? 		C 		-0.03240
C 1.0  		0.07607826682279356 		0.7598881146334283  0.4080881738054222 		Uiso   ? 		C 		-0.03214
C 1.0  		0.5721668543405979 		0.2591029541662578  0.408860093428005 		Uiso   ? 		C 		-0.03236
C 1.0  		0.5740260745274419 		0.7643046422612623  0.4096320130505878 		Uiso   ? 		C 		-0.13070
C 1.0  		0.22242599923388834 		0.17371675336146825  0.48399360335939423 		Uiso   ? 		C 		-0.03222
C 1.0  		0.2294988656926741 		0.6774462655805281  0.4787188192717453 		Uiso   ? 		C 		-0.03221
C 1.0  		0.7268008108845203 		0.16463833545980963  0.47614575386313607 		Uiso   ? 		C 		-0.12901
C 1.0  		0.722215431879685 		0.6798998920404358  0.484508216441116 		Uiso   ? 		C 		0.65942
C 1.0  		0.45948817409397186 		0.16463833545980963  0.4824497641142287 		Uiso   ? 		C 		0.65957
C 1.0  		0.4689225041709667 		0.6671410344489155  0.47897612581260623 		Uiso   ? 		C 		-0.13514
C 1.0  		0.9585970406965645 		0.17052703896358817  0.48090592486906314 		Uiso   ? 		C 		0.65941
C 1.0  		0.9758888648578332 		0.6602708803611739  0.4735726884545269 		Uiso   ? 		C 		0.65956
C 1.0  		0.38298182685152493 		0.002698989105898518  0.47897612581260623 		Uiso   ? 		C 		0.65955
C 1.0  		0.3719008971028926 		0.500294435175189  0.479748045435189 		Uiso   ? 		C 		0.65945
C 1.0  		0.8738188508330023 		0.0056433408577878106  0.4832216837368114 		Uiso   ? 		C 		0.65955
C 1.0  		0.8662733965543001 		0.49416036902541954  0.4784615127308844 		Uiso   ? 		C 		0.65944
C 1.0  		0.298138612576066 		0.08587692609677103  0.4833503370072419 		Uiso   ? 		C 		0.65955
C 1.0  		0.2956975647251915 		0.587152811855923  0.4810345781394936 		Uiso   ? 		C 		0.65945
C 1.0  		0.7928310078589476 		0.08293257434488174  0.4832216837368114 		Uiso   ? 		C 		0.65955
C 1.0  		0.805930456602632 		0.5957405044656002  0.48232111084379825 		Uiso   ? 		C 		0.65944
C 1.0  		0.36996999771820704 		0.9885661006968299  0.4185090887102896 		Uiso   ? 		C 		0.65942
C 1.0  		0.365668301122553 		0.4865541269997056  0.4195383148737333 		Uiso   ? 		C 		0.65957
C 1.0  		0.8703098172405372 		0.9858671115909314  0.4204388877667464 		Uiso   ? 		C 		-0.13061
C 1.0  		0.8610703820901762 		0.4799293355579547  0.4168365961946936 		Uiso   ? 		C 		-0.13070
C 1.0  		0.21330969847836406 		0.11851015801354402  0.2588503801060875 		Uiso   ? 		C 		-0.12965
C 1.0  		0.20792433641434893 		0.6138973402689174  0.2643824707345973 		Uiso   ? 		C 		0.54392
C 1.0  		0.7097084916167705 		0.11090391598783003  0.2664409230614847 		Uiso   ? 		C 		0.54392
C 1.0  		0.7084197050409924 		0.6119344391009913  0.2593649931878093 		Uiso   ? 		C 		-0.13077
C 1.0  		0.29735255639264246 		0.10427912454607911  0.12968249659390466 		Uiso   ? 		C 		0.54391
C 1.0  		0.2926944752590647 		0.5994209441554619  0.13186960219122248 		Uiso   ? 		C 		0.54391
C 1.0  		0.7966956637441895 		0.10256158602414368  0.13302748162509664 		Uiso   ? 		C 		0.54392
C 1.0  		0.795880000958239 		0.6011384826773973  0.13431401432940127 		Uiso   ? 		C 		0.54392
C 1.0  		0.29372262821734474 		0.10084404750220827  0.2777624108593652 		Uiso   ? 		C 		0.60440
C 1.0  		0.29354675709434214 		0.6058003729512219  0.2762185716141997 		Uiso   ? 		C 		-0.13600
C 1.0  		0.7973812777063467 		0.10010795956423595  0.27673318469592156 		Uiso   ? 		C 		0.60440
C 1.0  		0.7913103016801744 		0.5979487682795172  0.2763472248846302 		Uiso   ? 		C 		-0.12965
C 1.0  		0.25312674679658753 		0.027725978996957508  0.1626177338241027 		Uiso   ? 		C 		0.60440
C 1.0  		0.25308650838624286 		0.5236038865443126  0.16223177401281128 		Uiso   ? 		C 		0.60440
C 1.0  		0.7513745339410548 		0.025517715183040534  0.1631323469058245 		Uiso   ? 		C 		0.60440
C 1.0  		0.7546466490204933 		0.5280204141721465  0.16338965344668543 		Uiso   ? 		C 		0.60440
C 1.0  		0.2503972439017359 		0.028216704288939055  0.3055515172723448 		Uiso   ? 		C 		-0.24399
C 1.0  		0.2504491370507993 		0.5302286779860634  0.30606613035406666 		Uiso   ? 		C 		-0.24399
C 1.0  		0.7522332922532208 		0.027235253704975957  0.30773862286966264 		Uiso   ? 		C 		-0.24399
C 1.0  		0.7505412759094084 		0.5206595347924232  0.30915380884439775 		Uiso   ? 		C 		0.11818
C 1.0  		0.3372860353108364 		0.24364510746883897  0.3652466347520787 		Uiso   ? 		C 		-0.13600
C 1.0  		0.32197057621534986 		0.7382962017862401  0.3670477805381052 		Uiso   ? 		C 		0.11819
C 1.0  		0.841509940149074 		0.24658945922072822  0.3664045141859529 		Uiso   ? 		C 		-0.12965
C 1.0  		0.8476847024733731 		0.7527725978996959  0.3620303029913172 		Uiso   ? 		C 		0.11818
C 1.0  		0.44200411712899584 		0.022573363431151242  0.16300369363539405 		Uiso   ? 		C 		0.11878
C 1.0  		0.4459377744480072 		0.5238492491903033  0.1612025478493676 		Uiso   ? 		C 		0.11878
C 1.0  		0.943097610450307 		0.024781627245068213  0.16686329174830788 		Uiso   ? 		C 		0.11878
C 1.0  		0.9452656076998178 		0.5250760624202572  0.16557675904400326 		Uiso   ? 		C 		-0.08216
C 1.0  		0.44104675078053324 		0.019383649033271177  0.30104865280727866 		Uiso   ? 		C 		-0.13600
C 1.0  		0.44279208883134435 		0.5260575130042203  0.3059374770836362 		Uiso   ? 		C 		-0.08216
C 1.0  		0.9443878255840207 		0.021837275493178918  0.3029784518637356 		Uiso   ? 		C 		-0.08216
C 1.0  		0.9420847315917634 		0.5204141721464325  0.30207787897072236 		Uiso   ? 		C 		0.11983
C 1.0  		0.4486368751274088 		0.21518304053390913  0.1612025478493676 		Uiso   ? 		C 		-0.03222
C 1.0  		0.44430748744815285 		0.7152321130631073  0.16081658803807622 		Uiso   ? 		C 		0.11983
C 1.0  		0.942619584725549 		0.21591912847188147  0.16274638709453312 		Uiso   ? 		C 		0.11983
C 1.0  		0.9493156142848442 		0.7171950142310335  0.16570541231443375 		Uiso   ? 		C 		0.11921
C 1.0  		0.4462754115091997 		0.216409853763863  0.31108360790085465 		Uiso   ? 		C 		0.11921
C 1.0  		0.4480448212825951 		0.7218569045048583  0.3055515172723448 		Uiso   ? 		C 		0.11921
C 1.0  		0.9504576493791573 		0.21714594170183532  0.3136566733094639 		Uiso   ? 		C 		-0.24357
C 1.0  		0.9468972095986187 		0.7191579153989597  0.3065807434357885 		Uiso   ? 		C 		-0.24357
C 1.0  		0.15052001312796776 		0.12169987241142409  0.16634867866658604 		Uiso   ? 		C 		-0.24357
C 1.0  		0.14640543676700066 		0.6281283737363824  0.16699194501873835 		Uiso   ? 		C 		-0.13600
C 1.0  		0.6520472844167859 		0.12562567474727648  0.1641615730692682 		Uiso   ? 		C 		-0.08298
C 1.0  		0.6455272563233703 		0.6246932966925115  0.16403291979883775 		Uiso   ? 		C 		-0.08299
C 1.0  		0.14781690310165974 		0.1273432132692119  0.3079959294105236 		Uiso   ? 		C 		-0.08298
C 1.0  		0.14867708997176116 		0.6271469231524194  0.3009199995368482 		Uiso   ? 		C 		-0.03222
C 1.0  		0.6518588659670407 		0.12439886151732261  0.3055515172723448 		Uiso   ? 		C 		-0.12965
C 1.0  		0.6468109949801955 		0.626410835214447  0.30979707519655003 		Uiso   ? 		C 		-0.12965
C 1.0  		0.15031373978951504 		0.31848071449602516  0.1651907992327119 		Uiso   ? 		C 		-0.13077
C 1.0  		0.1493119796997786 		0.8222102267150849  0.16686329174830788 		Uiso   ? 		C 		-0.13077
C 1.0  		0.6459787755205957 		0.3157817253901266  0.16686329174830788 		Uiso   ? 		C 		-0.13444
C 1.0  		0.6464797207369024 		0.8165668858572971  0.16017332168592394 		Uiso   ? 		C 		-0.03222
C 1.0  		0.14929295589614747 		0.3206889783099421  0.3112122611712851 		Uiso   ? 		C 		-0.03223
C 1.0  		0.14788148956148844 		0.8214741387771126  0.3027211453228747 		Uiso   ? 		C 		-0.02997
C 1.0  		0.6481694159347553 		0.3167631759740897  0.30812458268095405 		Uiso   ? 		C 		-0.02998
C 1.0  		0.64981614594927 		0.8219648640690942  0.3094111153852586 		Uiso   ? 		C 		-0.02997
C 1.0  		0.3428210382972211 		0.3167631759740897  0.16673463847787742 		Uiso   ? 		C 		-0.13444
C 1.0  		0.3412956898265291 		0.819020512317205  0.16467618615099006 		Uiso   ? 		C 		-0.13444
C 1.0  		0.8406373686201407 		0.31921680243399747  0.16467618615099006 		Uiso   ? 		C 		-0.13600
C 1.0  		0.8411207185907517 		0.8165668858572971  0.16995097023863895 		Uiso   ? 		C 		-0.13600
C 1.0  		0.34166877702212484 		0.3170085386200805  0.3113409144417156 		Uiso   ? 		C 		-0.03230
C 1.0  		0.341304487449377 		0.8207380508391403  0.30503690419062296 		Uiso   ? 		C 		-0.03230
C 1.0  		0.843899257518796 		0.321915791539896  0.3082532359513845 		Uiso   ? 		C 		-0.03035
C 1.0  		0.8393638561440989 		0.8173029737952695  0.30851054249224547 		Uiso   ? 		C 		-0.03035
C 1.0  		0.17926923063535855 		0.20512317204828737  0.23569279142860453 		Uiso   ? 		C 		-0.13444
C 1.0  		0.1855032551736335 		0.7169496515850428  0.23427760545386944 		Uiso   ? 		C 		0.65551
C 1.0  		0.6825445667479816 		0.20659534792423204  0.23607875123989588 		Uiso   ? 		C 		0.65552
C 1.0  		0.6888702358846748 		0.7007557169496517  0.23620740451032637 		Uiso   ? 		C 		-0.02997
C 1.0  		0.18087054397769825 		0.20365099617234272  0.37695408236125066 		Uiso   ? 		C 		0.65728
C 1.0  		0.17973730650623312 		0.7054176072234764  0.37476697676393284 		Uiso   ? 		C 		0.65729
C 1.0  		0.6898719959744113 		0.19702620473059185  0.37785465525426387 		Uiso   ? 		C 		-0.02998
C 1.0  		0.6816127006800388 		0.7002649916576701  0.37965580104029034 		Uiso   ? 		C 		-0.03230
C 1.0  		0.27120024449237257 		0.2848660319952891  0.23659336432161773 		Uiso   ? 		C 		-0.12965
C 1.0  		0.26908556894986063 		0.7846697418784965  0.23492087180602175 		Uiso   ? 		C 		-0.02997
C 1.0  		0.7697744039452022 		0.28118559230542745  0.23762259048506143 		Uiso   ? 		C 		-0.03222
C 1.0  		0.7671296635448461 		0.784179016586515  0.23787989702592235 		Uiso   ? 		C 		-0.03222
C 1.0  		0.26052759243072754 		0.2873196584551968  0.3802990673924426 		Uiso   ? 		C 		0.57023
C 1.0  		0.2628094718162713 		0.7861419177544412  0.37463832349350235 		Uiso   ? 		C 		0.57022
C 1.0  		0.7531450636204522 		0.2645009323780548  0.3782406150655553 		Uiso   ? 		C 		0.57023
C 1.0  		0.7653640034753455 		0.7831975660025519  0.38094233374459496 		Uiso   ? 		C 		0.65552
C 1.0  		0.18378577087433512 		0.2868289331632153  0.23492087180602175 		Uiso   ? 		C 		-0.13077
C 1.0  		0.20012719212501942 		0.7925213465502012  0.23286241947913439 		Uiso   ? 		C 		0.65552
C 1.0  		0.697069895663071 		0.28069486701344587  0.2363360577807568 		Uiso   ? 		C 		0.65552
C 1.0  		0.691973881231057 		0.785160467170478  0.23685067086247866 		Uiso   ? 		C 		-0.03230
C 1.0  		0.18428944286363555 		0.27848660319952895  0.3774686954429725 		Uiso   ? 		C 		0.65552
C 1.0  		0.19955961562982427 		0.7824614780645796  0.37296583097790637 		Uiso   ? 		C 		0.57021
C 1.0  		0.6825478618159204 		0.2605751300422024  0.377340042172542 		Uiso   ? 		C 		0.57024
C 1.0  		0.6813183374541181 		0.7672489940131515  0.3791411879585685 		Uiso   ? 		C 		0.57024
C 1.0  		0.3267520837118099 		0.06575718912552754  0.2337629923721476 		Uiso   ? 		C 		-0.03035
C 1.0  		0.3316713344327973 		0.5579546569830209  0.23453491199473037 		Uiso   ? 		C 		-0.03035
C 1.0  		0.8257248306407549 		0.05692413386985966  0.23556413815817404 		Uiso   ? 		C 		-0.13077
C 1.0  		0.8246661294830021 		0.5613897340268917  0.23530683161731314 		Uiso   ? 		C 		-0.03035
C 1.0  		0.07613512655685464 		0.21984493080773385  0.21639480086403537 		Uiso   ? 		C 		-0.03035
C 1.0  		0.07812631108641721 		0.7508096967317697  0.2147223083484394 		Uiso   ? 		C 		-0.03230
C 1.0  		0.5736005258878378 		0.201197369712435  0.21420769526671754 		Uiso   ? 		C 		-0.13444
C 1.0  		0.5703252784083712 		0.7233290803808029  0.21639480086403537 		Uiso   ? 		C 		-0.03230
C 1.0  		0.3338494275202143 		0.05275296888801649  0.37862657487684664 		Uiso   ? 		C 		0.57047
C 1.0  		0.3375312488445754 		0.5582000196290117  0.37798330852469436 		Uiso   ? 		C 		0.57046
C 1.0  		0.8321388816329615 		0.05275296888801649  0.379269841228999 		Uiso   ? 		C 		0.57047
C 1.0  		0.837634506471992 		0.5567278437530672  0.3784979216064162 		Uiso   ? 		C 		0.65729
C 1.0  		0.07565309148519012 		0.10795956423594073  0.2655403501684715 		Uiso   ? 		C 		0.65728
C 1.0  		0.07538325461780981 		0.62420257140053  0.24830081193078968 		Uiso   ? 		C 		0.65729
C 1.0  		0.5753577616364911 		0.11164000392580235  0.25962229972867024 		Uiso   ? 		C 		-0.13077
C 1.0  		0.5701367462996371 		0.6094808126410836  0.26476843054588867 		Uiso   ? 		C 		0.65729
C 1.0  		0.4160040592651002 		0.14991657670036315  0.23466356526516083 		Uiso   ? 		C 		-0.13444
C 1.0  		0.39108023315458595 		0.629600549612327  0.23363433910171716 		Uiso   ? 		C 		0.57045
C 1.0  		0.8938305523283179 		0.13151437825105508  0.23762259048506143 		Uiso   ? 		C 		0.57048
C 1.0  		0.8922394651667618 		0.6327902640102072  0.2347922185355913 		Uiso   ? 		C 		0.57047
C 1.0  		0.40634290651298516 		0.12464422416331339  0.379269841228999 		Uiso   ? 		C 		0.65367
C 1.0  		0.40740495174759844 		0.6401511433899304  0.37708273563168115 		Uiso   ? 		C 		0.54468
C 1.0  		0.9113927003179567 		0.12881538914515656  0.379269841228999 		Uiso   ? 		C 		0.54544
C 1.0  		0.9094118233031329 		0.6369614289920503  0.3757962029273765 		Uiso   ? 		C 		0.54775
C 1.0  		0.3922384026116258 		0.06158602414368437  0.23324837929042574 		Uiso   ? 		C 		0.54712
C 1.0  		0.4060845617164127 		0.5601629207969379  0.23530683161731314 		Uiso   ? 		C 		-0.13819
C 1.0  		0.8887117320637445 		0.056678771223868885  0.23659336432161773 		Uiso   ? 		C 		0.54273
C 1.0  		0.889841350174192 		0.555746393169104  0.23517817834688268 		Uiso   ? 		C 		0.54364
C 1.0  		0.40312354484560037 		0.05913239768377662  0.37669677582038974 		Uiso   ? 		C 		-0.13442
C 1.0  		0.4104352943452593 		0.5680145254686427  0.37708273563168115 		Uiso   ? 		C 		0.12425
C 1.0  		0.9038971423354376 		0.05815094709981353  0.37708273563168115 		Uiso   ? 		C 		0.12399
C 1.0  		0.9100149635917201 		0.5650701737167534  0.3751529365752242 		Uiso   ? 		C 		0.12427
C 1.0  		0.07850819590486074 		0.2505152615565806  0.3602291572052907 		Uiso   ? 		C 		-0.07384
C 1.0  		0.07769668844983935 		0.7380508391402494  0.3620303029913172 		Uiso   ? 		C 		-0.13482
C 1.0  		0.5772925243840605 		0.2404553930709589  0.3633168356956218 		Uiso   ? 		C 		-0.13502
C 1.0  		0.5776819086102938 		0.7490921582098342  0.36588990110423103 		Uiso   ? 		C 		-0.07406
C 1.0  		0.20062498825741 		0.9252625380312102  0.23402029891300852 		Uiso   ? 		C 		-0.07390
C 1.0  		0.21238273434535165 		0.4234959269800766  0.23453491199473037 		Uiso   ? 		C 		0.12125
C 1.0  		0.6989778599150622 		0.9198645598194132  0.23749393721463097 		Uiso   ? 		C 		0.12145
C 1.0  		0.6969894834924488 		0.41907939935224264  0.23710797740333958 		Uiso   ? 		C 		0.12162
C 1.0  		0.19316143935733282 		0.9201099224654039  0.37862657487684664 		Uiso   ? 		C 		-0.02699
C 1.0  		0.2056423110447826 		0.42913926783786444  0.38184290663760817 		Uiso   ? 		C 		-0.08033
C 1.0  		0.6856062531580382 		0.916920208067524  0.3783692683359857 		Uiso   ? 		C 		-0.08037
C 1.0  		0.689633340251516 		0.41711649818431645  0.37888388141770757 		Uiso   ? 		C 		-0.08014
C 1.0  		0.04244903075774702 		0.06747472764746296  0.2396810428119488 		Uiso   ? 		C 		-0.13470
C 1.0  		0.045053127120724124 		0.5758661301403475  0.22810224847320731 		Uiso   ? 		C 		-0.13470
C 1.0  		0.5389904200466894 		0.0699283541073707  0.23762259048506143 		Uiso   ? 		C 		-0.02735
C 1.0  		0.5387247385102383 		0.5751300422023751  0.23813720356678328 		Uiso   ? 		C 		-0.02770
C 1.0  		0.04590813572899536 		0.07311806850525077  0.37785465525426387 		Uiso   ? 		C 		-0.02746
C 1.0  		0.0467354532536646 		0.5724310530964767  0.3751529365752242 		Uiso   ? 		C 		-0.13825
C 1.0  		0.548364059351773 		0.06870154087741684  0.38107098701502545 		Uiso   ? 		C 		-0.13813
C 1.0  		0.5474761813980698 		0.570958877220532  0.3783692683359857 		Uiso   ? 		C 		-0.13835
C 1.0  		0.39067849659455456 		0.26670919619197175  0.23710797740333958 		Uiso   ? 		C 		-0.02782
C 1.0  		0.39069752039818567 		0.7682304445971145  0.2331197260199953 		Uiso   ? 		C 		-0.02819
C 1.0  		0.895997721639872 		0.2701442732358426  0.2354354848877436 		Uiso   ? 		C 		0.65149
C 1.0  		0.8759482165391599 		0.7591520266954559  0.23762259048506143 		Uiso   ? 		C 		0.65184
C 1.0  		0.38550419614493353 		0.26401020708607326  0.3863457711026743 		Uiso   ? 		C 		0.65479
C 1.0  		0.3737464500569919 		0.7657768181372069  0.3869890374548266 		Uiso   ? 		C 		0.65505
C 1.0  		0.8868430489840065 		0.26670919619197175  0.3884042234295617 		Uiso   ? 		C 		-0.13858
C 1.0  		0.8957713859257415 		0.7711747963490039  0.38351539915320415 		Uiso   ? 		C 		-0.02771
C 1.0  		0.2175103199077395 		0.9267347139071549  0.2512598371506903 		Uiso   ? 		C 		-0.02669
C 1.0  		0.21664133541479014 		0.42521346550201206  0.2535755960184386 		Uiso   ? 		C 		-0.13456
C 1.0  		0.7240517002499468 		0.9198645598194132  0.25010195771681615 		Uiso   ? 		C 		0.65158
C 1.0  		0.7161376707246909 		0.4178525861222888  0.2524177165845644 		Uiso   ? 		C 		-0.02778
C 1.0  		0.04376148342907517 		0.08072431053096478  0.25859307356522654 		Uiso   ? 		C 		0.65194
C 1.0  		0.04451475160102181 		0.6011384826773973  0.24096757551625342 		Uiso   ? 		C 		0.57010
C 1.0  		0.5427958137179555 		0.08391402492884485  0.255634048345326 		Uiso   ? 		C 		0.56676
C 1.0  		0.5399955242132863 		0.5861713612719599  0.2574351941313524 		Uiso   ? 		C 		0.56336
C 1.0  		0.36315937174391105 		0.23971930513298656  0.24804350538992875 		Uiso   ? 		C 		0.56392
C 1.0  		0.366383343378181 		0.7446756305820003  0.24675697268562416 		Uiso   ? 		C 		0.57325
C 1.0  		0.8716506752744351 		0.24609873392874668  0.2492013848238029 		Uiso   ? 		C 		0.56885
C 1.0  		0.847316176235741 		0.7282363333006183  0.24482717362916726 		Uiso   ? 		C 		0.65227
C 1.0  		0.22384335810934522 		0.9245264500932379  0.22012574570651874 		Uiso   ? 		C 		-0.02852
C 1.0  		0.2400874695387913 		0.4215330258121504  0.22630110268718084 		Uiso   ? 		C 		0.65122
C 1.0  		0.7137382898420963 		0.9213367356953578  0.21986843916565782 		Uiso   ? 		C 		-0.02833
C 1.0  		0.7166700567284944 		0.42104230052016883  0.22128362514039288 		Uiso   ? 		C 		-0.02720
C 1.0  		0.21439622106259604 		0.11728334478359015  0.21292116256241292 		Uiso   ? 		C 		0.65408
C 1.0  		0.2216269577716542 		0.6281283737363824  0.21549422797102213 		Uiso   ? 		C 		0.65560
C 1.0  		0.7187122574602418 		0.12636176268524882  0.21742402702747904 		Uiso   ? 		C 		0.56822
C 1.0  		0.7190488559493875 		0.6246932966925115  0.2183245999204923 		Uiso   ? 		C 		0.57141
C 1.0  		0.21389566583217806 		0.9203552851113946  0.3639601020477741 		Uiso   ? 		C 		-0.13850
C 1.0  		0.22878614458300553 		0.4257041907939936  0.3683343132424098 		Uiso   ? 		C 		0.57175
C 1.0  		0.7072649766359139 		0.9198645598194132  0.3624162628026086 		Uiso   ? 		C 		0.56527
C 1.0  		0.7159668475206413 		0.42006084993620574  0.36550394129293967 		Uiso   ? 		C 		0.57007
C 1.0  		0.042015739751229735 		0.08955736578663265  0.22475726344201535 		Uiso   ? 		C 		0.57134
C 1.0  		0.04782661812981534 		0.583963097458043  0.20816099155648587 		Uiso   ? 		C 		0.65514
C 1.0  		0.5430610896273724 		0.09421925606045736  0.22308477092641935 		Uiso   ? 		C 		-0.13514
C 1.0  		0.5423704277462621 		0.5994209441554619  0.2238566905490021 		Uiso   ? 		C 		0.65942
C 1.0  		0.046243792621195434 		0.09716360781234666  0.364474715129496 		Uiso   ? 		C 		0.65956
C 1.0  		0.0476997830400053 		0.5947590538816371  0.3610010768278735 		Uiso   ? 		C 		0.54322
C 1.0  		0.5468595198607602 		0.0890666404946511  0.3652466347520787 		Uiso   ? 		C 		0.54324
C 1.0  		0.5445235565230708 		0.587152811855923  0.36177299645045624 		Uiso   ? 		C 		-0.12901
C 1.0  		0.3395183426932762 		0.24683482186671904  0.25602000815661735 		Uiso   ? 		C 		0.54323
C 1.0  		0.3421946542240062 		0.751545784669742  0.2544761689114518 		Uiso   ? 		C 		0.54324
C 1.0  		0.8459657572911057 		0.25125134949455297  0.2555053950748955 		Uiso   ? 		C 		0.54322
C 1.0  		0.8200933624549768 		0.7294631465305722  0.25267502312542534 		Uiso   ? 		C 		0.54323
C 1.0  		0.3798127837912455 		0.25517715183040535  0.2183245999204923 		Uiso   ? 		C 		0.54322
C 1.0  		0.37738701004010733 		0.7535086858376682  0.21600884105274398 		Uiso   ? 		C 		0.54323
C 1.0  		0.880774799730828 		0.25542251447639613  0.21845325319092274 		Uiso   ? 		C 		0.54322
C 1.0  		0.8780314512941751 		0.756943762881539  0.21806729337963138 		Uiso   ? 		C 		0.54323
C 1.0  		0.3617200839827729 		0.23726567867307882  0.3724512178961845 		Uiso   ? 		C 		0.54322
C 1.0  		0.3479425206847211 		0.7358425753263325  0.3754102431160852 		Uiso   ? 		C 		0.54323
C 1.0  		0.864881537959363 		0.2402100304249681  0.37463832349350235 		Uiso   ? 		C 		0.60502
C 1.0  		0.8733696204567025 		0.7476199823338896  0.3693635394058535 		Uiso   ? 		C 		0.60536
C 1.0  		0.2613795822979598 		0.9218274609873394  0.12775269753744775 		Uiso   ? 		C 		0.60502
C 1.0  		0.2586639249449091 		0.4212876631661596  0.13174094892079205 		Uiso   ? 		C 		0.60528
C 1.0  		0.7610009185127007 		0.9210913730493671  0.13289882835466618 		Uiso   ? 		C 		0.60501
C 1.0  		0.7579348171287033 		0.4232505643340858  0.1345713208702622 		Uiso   ? 		C 		0.60530
C 1.0  		0.25714737409706495 		0.9252625380312102  0.27930625010453075 		Uiso   ? 		C 		0.60501
C 1.0  		0.2569246577439521 		0.4254588281480028  0.27943490337496124 		Uiso   ? 		C 		-0.13523
C 1.0  		0.7548146317925599 		0.9223181862793209  0.28175066224270956 		Uiso   ? 		C 		0.60541
C 1.0  		0.7522040589526945 		0.41858867406026107  0.28059278280883543 		Uiso   ? 		C 		-0.13061
C 1.0  		0.2087071298548673 		0.11482971832368243  0.3567555189036683 		Uiso   ? 		C 		0.60501
C 1.0  		0.2156684353235795 		0.626410835214447  0.35611225255151596 		Uiso   ? 		C 		0.60537
C 1.0  		0.7111325052781723 		0.11630189419962705  0.35714147871495966 		Uiso   ? 		C 		0.60502
C 1.0  		0.707464659838489 		0.6151241534988714  0.3566268656332378 		Uiso   ? 		C 		0.60536
C 1.0  		0.04615911146065524 		0.13396800471096282  0.13328478816595757 		Uiso   ? 		C 		-0.13390
C 1.0  		0.045271233506951836 		0.636225341054078  0.13508593395198404 		Uiso   ? 		C 		-0.24297
C 1.0  		0.5471364014999741 		0.1312690156050643  0.13367074797724895 		Uiso   ? 		C 		-0.24540
C 1.0  		0.5440907524775432 		0.633035626656198  0.13251286854337482 		Uiso   ? 		C 		-0.24297
C 1.0  		0.04485130108124588 		0.13347727941898127  0.27583261180290836 		Uiso   ? 		C 		-0.24537
C 1.0  		0.044609691267378904 		0.6374521542840318  0.2699145613631071 		Uiso   ? 		C 		-0.24297
C 1.0  		0.5473336175725673 		0.1342133673569536  0.27686183796635205 		Uiso   ? 		C 		-0.24541
C 1.0  		0.5439199292734938 		0.6352438904701149  0.2790489435636699 		Uiso   ? 		C 		0.11549
C 1.0  		0.3380498539566453 		0.20904897438413977  0.13264152181380526 		Uiso   ? 		C 		0.11549
C 1.0  		0.33347510675962755 		0.7086073216213564  0.13161229565036156 		Uiso   ? 		C 		0.11549
C 1.0  		0.8329964063801365 		0.20831288644616744  0.13392805451810988 		Uiso   ? 		C 		0.11542
C 1.0  		0.8377559526658818 		0.7108155854352733  0.1354718937632754 		Uiso   ? 		C 		-0.13523
C 1.0  		0.33749571737621686 		0.2134655020119737  0.2809787426201268 		Uiso   ? 		C 		0.12004
C 1.0  		0.337792970043042 		0.7159682010010797  0.2787916370228089 		Uiso   ? 		C 		0.11543
C 1.0  		0.8362013542107752 		0.2117479634900383  0.27930625010453075 		Uiso   ? 		C 		0.12007
C 1.0  		0.829116070768124 		0.7071351457454118  0.2790489435636699 		Uiso   ? 		C 		-0.13060
C 1.0  		0.26075090940381906 		0.9235449995092747  0.19195067948224778 		Uiso   ? 		C 		0.11543
C 1.0  		0.26160591801209027 		0.4207969378741781  0.19182202621181732 		Uiso   ? 		C 		0.12008
C 1.0  		0.7555659844455815 		0.9208460104033763  0.19400913180913515 		Uiso   ? 		C 		-0.08709
C 1.0  		0.7583750715730987 		0.4203062125821965  0.19529566451343977 		Uiso   ? 		C 		-0.08943
C 1.0  		0.252781367368482 		0.9203552851113946  0.3360423423643641 		Uiso   ? 		C 		-0.13390
C 1.0  		0.2575533306380928 		0.4237412896260674  0.33694291525737735 		Uiso   ? 		C 		-0.08709
C 1.0  		0.752558252687536 		0.9203552851113946  0.33797214142082094 		Uiso   ? 		C 		-0.08943
C 1.0  		0.753814169917882 		0.4188340367062519  0.3374575283390992 		Uiso   ? 		C 		-0.08709
C 1.0  		0.0408357383836097 		0.12587103739326727  0.19568162432473113 		Uiso   ? 		C 		-0.08943
C 1.0  		0.04568093975187454 		0.6391696928059672  0.19722546356989668 		Uiso   ? 		C 		-0.08930
C 1.0  		0.5443082905688258 		0.1302875650211012  0.19285125237526102 		Uiso   ? 		C 		-0.08573
C 1.0  		0.5430107063701998 		0.629600549612327  0.19285125237526102 		Uiso   ? 		C 		-0.08930
C 1.0  		0.0468775947682446 		0.13200510354303663  0.3350131162009204 		Uiso   ? 		C 		-0.08572
C 1.0  		0.045759631396515954 		0.630827362842281  0.33282601060360256 		Uiso   ? 		C 		-0.08930
C 1.0  		0.5462600479421124 		0.12611640003925803  0.33694291525737735 		Uiso   ? 		C 		-0.08570
C 1.0  		0.5456679940972986 		0.6327902640102072  0.3368142619869468 		Uiso   ? 		C 		0.11818
C 1.0  		0.33705314178586204 		0.21003042496810287  0.19362317199784376 		Uiso   ? 		C 		-0.12902
C 1.0  		0.3327718975517746 		0.7076258710373933  0.19310855891612191 		Uiso   ? 		C 		-0.13070
C 1.0  		0.835743504520684 		0.21125723819805675  0.1941377850795656 		Uiso   ? 		C 		0.11818
C 1.0  		0.8355324429062898 		0.7093434095593287  0.19439509162042654 		Uiso   ? 		C 		0.11818
C 1.0  		0.3337671811646225 		0.20855824909215823  0.3401592470181388 		Uiso   ? 		C 		0.11809
C 1.0  		0.3330195782154957 		0.714496025125135  0.3405452068294302 		Uiso   ? 		C 		-0.13523
C 1.0  		0.8361837589650793 		0.20831288644616744  0.34247500588588714 		Uiso   ? 		C 		0.12080
C 1.0  		0.8347394232849883 		0.7086073216213564  0.34067386009986067 		Uiso   ? 		C 		-0.03262
C 1.0  		0.37855147766497926 		0.9215820983413485  0.25306098293671675 		Uiso   ? 		C 		0.11809
C 1.0  		0.37639227803831643 		0.423005201688095  0.2515171436915512 		Uiso   ? 		C 		0.12086
C 1.0  		0.8723610429131108 		0.9181470212974777  0.25048791752810756 		Uiso   ? 		C 		0.11810
C 1.0  		0.8646178365919042 		0.4139267837864364  0.25010195771681615 		Uiso   ? 		C 		0.12087
C 1.0  		0.23919360206918908 		0.9522524290901954  0.3564982123628074 		Uiso   ? 		C 		-0.24315
C 1.0  		0.254679884368725 		0.45539307095887727  0.3612583833687344 		Uiso   ? 		C 		-0.13393
C 1.0  		0.7355530493852748 		0.9488173520463246  0.35817070487840336 		Uiso   ? 		C 		-0.24404
C 1.0  		0.7374311630328729 		0.450240455393071  0.3566268656332378 		Uiso   ? 		C 		-0.24315
C 1.0  		0.38758462279299966 		0.231622337815291  0.21150597658767784 		Uiso   ? 		C 		-0.24407
C 1.0  		0.3836385484901227 		0.7294631465305722  0.20944752426079047 		Uiso   ? 		C 		-0.24315
C 1.0  		0.888286005115084 		0.23432132692118954  0.20957617753122093 		Uiso   ? 		C 		-0.24411
C 1.0  		0.8862282706405884 		0.7333889488664246  0.2122778962102606 		Uiso   ? 		C 		-0.08678
C 1.0  		0.0519149152812277 		0.1850034350770439  0.25267502312542534 		Uiso   ? 		C 		-0.08730
C 1.0  		0.047979099484167675 		0.7559623122975758  0.2524177165845644 		Uiso   ? 		C 		-0.08678
C 1.0  		0.5429621082890752 		0.18156835803317303  0.2525463698549949 		Uiso   ? 		C 		-0.08730
C 1.0  		0.5493197865082102 		0.7412405535381293  0.252289063314134 		Uiso   ? 		C 		-0.08678
C 1.0  		0.21848998844388393 		0.09274708018451272  0.25293232966628626 		Uiso   ? 		C 		-0.08730
C 1.0  		0.21628550248792328 		0.5927961527137109  0.2552480885340346 		Uiso   ? 		C 		-0.08723
C 1.0  		0.7150531283094511 		0.08759446461870646  0.25769250067221333 		Uiso   ? 		C 		-0.13523
C 1.0  		0.7107959557979482 		0.583963097458043  0.25434751564102137 		Uiso   ? 		C 		-0.08611
C 1.0  		0.37053379218447363 		0.9208460104033763  0.2216695849516843 		Uiso   ? 		C 		-0.08723
C 1.0  		0.3729836376581961 		0.4212876631661596  0.22038305224737967 		Uiso   ? 		C 		-0.08607
C 1.0  		0.8791037873596392 		0.9188831092354501  0.2192251728135055 		Uiso   ? 		C 		-0.08723
C 1.0  		0.8780311103172082 		0.41907939935224264  0.21973978589522736 		Uiso   ? 		C 		-0.08605
C 1.0  		0.3744841031522351 		0.9512709785062322  0.21600884105274398 		Uiso   ? 		C 		-0.13061
C 1.0  		0.3774158700386331 		0.4509765433310433  0.2136930821849957 		Uiso   ? 		C 		-0.13391
C 1.0  		0.8826291179827416 		0.9493080773383061  0.21433634853714797 		Uiso   ? 		C 		-0.13061
C 1.0  		0.8803472385971978 		0.4504858180390618  0.2149796148893003 		Uiso   ? 		C 		-0.03262
C 1.0  		0.3449122917460492 		0.9206006477573855  0.3701354590284362 		Uiso   ? 		C 		-0.13070
C 1.0  		0.37916344790144824 		0.4247227402100305  0.3633168356956218 		Uiso   ? 		C 		-0.12903
C 1.0  		0.7981056858797677 		0.9230542742172932  0.36653316745638337 		Uiso   ? 		C 		-0.13070
C 1.0  		0.8677288186781652 		0.42864854254588286  0.3712933384623104 		Uiso   ? 		C 		-0.12901
C 1.0  		0.26511092661650315 		0.95691431936402  0.27004321463353764 		Uiso   ? 		C 		-0.03261
C 1.0  		0.2614314264381014 		0.45784669741878503  0.2731308931238687 		Uiso   ? 		C 		-0.03262
C 1.0  		0.7655646282748665 		0.9527431543821769  0.27158705387870313 		Uiso   ? 		C 		-0.03254
C 1.0  		0.7610175721614507 		0.450240455393071  0.27248762677171634 		Uiso   ? 		C 		-0.13514
C 1.0  		0.04893357639172577 		0.1896653253508686  0.22192689149254521 		Uiso   ? 		C 		-0.03209
C 1.0  		0.04854851016433248 		0.7486014329178526  0.22012574570651874 		Uiso   ? 		C 		-0.03254
C 1.0  		0.5413783901924313 		0.18647561095298854  0.22128362514039288 		Uiso   ? 		C 		-0.03210
C 1.0  		0.5442811187712472 		0.7294631465305722  0.2205117055178101 		Uiso   ? 		C 		-0.13514
C 1.0  		0.04718000901301181 		0.24438119540681127  0.36679047399724424 		Uiso   ? 		C 		-0.13515
C 1.0  		0.04802907711430593 		0.7360879379723232  0.3685916197832707 		Uiso   ? 		C 		-0.13523
C 1.0  		0.5480827627386184 		0.23898321719501425  0.36910623286499256 		Uiso   ? 		C 		-0.03254
C 1.0  		0.5475564475846691 		0.7466385317499264  0.3711646851918799 		Uiso   ? 		C 		-0.13392
C 1.0  		0.22220092940978245 		0.09421925606045736  0.22102631859953195 		Uiso   ? 		C 		-0.13523
C 1.0  		0.22742064653157829 		0.603592109137305  0.22308477092641935 		Uiso   ? 		C 		-0.13391
C 1.0  		0.7227972272186818 		0.10010795956423595  0.22527187652373715 		Uiso   ? 		C 		-0.03221
C 1.0  		0.7219968385324677 		0.5957405044656002  0.22282746438555842 		Uiso   ? 		C 		-0.12900
C 1.0  		0.2158655700622173 		0.0900480910786142  0.36293087588433043 		Uiso   ? 		C 		-0.03209
C 1.0  		0.22191997377359485 		0.6023652959073511  0.36421740858863505 		Uiso   ? 		C 		-0.03222
C 1.0  		0.7174081154507719 		0.09102954166257729  0.3635741422364827 		Uiso   ? 		C 		-0.03214
C 1.0  		0.7166100479105171 		0.5930415153597016  0.36408875531820456 		Uiso   ? 		C 		-0.03237
C 1.0  		0.39378503138184107 		0.9206006477573855  0.2354354848877436 		Uiso   ? 		C 		-0.03214
C 1.0  		0.3937178641330413 		0.4215330258121504  0.23530683161731314 		Uiso   ? 		C 		0.65790
C 1.0  		0.8951873017658191 		0.917901658651487  0.23556413815817404 		Uiso   ? 		C 		-0.03239
C 1.0  		0.8900597162034312 		0.4146628717244087  0.23672201759204822 		Uiso   ? 		C 		0.65790
C 1.0  		0.3465404849179222 		0.9480812641083521  0.3624162628026086 		Uiso   ? 		C 		0.65813
C 1.0  		0.3846011900755164 		0.4551477083128865  0.3555976394697941 		Uiso   ? 		C 		0.65790
C 1.0  		0.8212939944932197 		0.9520070664442046  0.3576560917966815 		Uiso   ? 		C 		0.65813
C 1.0  		0.8694884892317668 		0.45809206006477576  0.36550394129293967 		Uiso   ? 		C 		0.65811
C 1.0  		0.3788954452190376 		0.9235449995092747  0.3757962029273765 		Uiso   ? 		C 		0.65779
C 1.0  		0.39814081192964074 		0.4257041907939936  0.37991310758115127 		Uiso   ? 		C 		-0.13514
C 1.0  		0.7781163355810554 		0.9259986259691826  0.3811996402854559 		Uiso   ? 		C 		0.65811
C 1.0  		0.8945923908051345 		0.4284031798998921  0.38274347953062143 		Uiso   ? 		C 		0.65779
C 1.0  		0.05612720709046729 		0.17175385219354206  0.23530683161731314 		Uiso   ? 		C 		0.65942
C 1.0  		0.05018317981309406 		0.7714201589949947  0.23453491199473037 		Uiso   ? 		C 		0.65957
C 1.0  		0.538473908762601 		0.2002159191284719  0.23826585683721374 		Uiso   ? 		C 		0.65942
C 1.0  		0.5484175270427945 		0.754735499067622  0.2347922185355913 		Uiso   ? 		C 		0.65957
C 1.0  		0.04607637814407378 		0.26597310825399945  0.38094233374459496 		Uiso   ? 		C 		0.65955
C 1.0  		0.05099795001102059 		0.764550004907253  0.38068502720373404 		Uiso   ? 		C 		0.65944
C 1.0  		0.5463921259438198 		0.2645009323780548  0.38210021317846915 		Uiso   ? 		C 		0.65955
C 1.0  		0.5467157714791885 		0.7721562469329669  0.3841586655053565 		Uiso   ? 		C 		0.65945
C 1.0  		0.20054404011687654 		0.07385415644322309  0.23620740451032637 		Uiso   ? 		C 		-0.03254
C 1.0  		0.2038337504420108 		0.5797919324761999  0.23710797740333958 		Uiso   ? 		C 		-0.03212
C 1.0  		0.6997579912326543 		0.07655314554912161  0.24019565589367065 		Uiso   ? 		C 		-0.03254
C 1.0  		0.6991612950959217 		0.5704681519285505  0.23582144469903496 		Uiso   ? 		C 		-0.03211
C 1.0  		0.1982788633890046 		0.07017371675336147  0.379269841228999 		Uiso   ? 		C 		-0.03254
C 1.0  		0.19852149613377257 		0.5797919324761999  0.3782406150655553 		Uiso   ? 		C 		-0.03206
C 1.0  		0.6968946898101143 		0.06870154087741684  0.37888388141770757 		Uiso   ? 		C 		-0.13061
C 1.0  		0.6992117596870497 		0.5743939542644029  0.3808136804741645 		Uiso   ? 		C 		-0.03261
C 1.0  		0.33048703175022554 		0.9193738345274316  0.13148364237993113 		Uiso   ? 		C 		-0.03221
C 1.0  		0.33630385063578816 		0.41932476199823343  0.1312263358390702 		Uiso   ? 		C 		-0.03262
C 1.0  		0.8360909621356254 		0.9191284718814409  0.13611516011542774 		Uiso   ? 		C 		0.65790
C 1.0  		0.8359427820962249 		0.42202375110413193  0.1335420947068185 		Uiso   ? 		C 		0.65813
C 1.0  		0.33450907092475013 		0.9223181862793209  0.27789106412979575 		Uiso   ? 		C 		0.65790
C 1.0  		0.3367880931944231 		0.4249681028560212  0.27866298375237847 		Uiso   ? 		C 		0.65813
C 1.0  		0.8285968650360754 		0.9198645598194132  0.2753179987211865 		Uiso   ? 		C 		0.65811
C 1.0  		0.8275153903707966 		0.41834331141427034  0.2773764510480739 		Uiso   ? 		C 		0.65778
C 1.0  		0.045529578303524186 		0.20070664442045344  0.1295538433234742 		Uiso   ? 		C 		0.65811
C 1.0  		0.04518056283051286 		0.701491804887624  0.1321269087320834 		Uiso   ? 		C 		0.65779
C 1.0  		0.5454708103497391 		0.20316027088036118  0.12929653678261327 		Uiso   ? 		C 		0.65811
C 1.0  		0.5482017418025262 		0.7007557169496517  0.12852461716003052 		Uiso   ? 		C 		0.65779
C 1.0  		0.047080914015725575 		0.21910884286976154  0.2811073958905572 		Uiso   ? 		C 		-0.13070
C 1.0  		0.04845357049797533 		0.7122877613112181  0.27827702394108705 		Uiso   ? 		C 		0.65811
C 1.0  		0.545727288636308 		0.2117479634900383  0.28342315475830554 		Uiso   ? 		C 		0.65777
C 1.0  		0.5490299519152194 		0.7083619589753657  0.2830371949470142 		Uiso   ? 		C 		0.65790
C 1.0  		0.2664239308988883 		0.14059279615271372  0.13148364237993113 		Uiso   ? 		C 		0.65813
C 1.0  		0.2581447192128606 		0.634017077240161  0.1321269087320834 		Uiso   ? 		C 		-0.03221
C 1.0  		0.7633463124182502 		0.13445873000294437  0.13444266759983173 		Uiso   ? 		C 		0.65813
C 1.0  		0.7625482448779957 		0.6364707037000688  0.1354718937632754 		Uiso   ? 		C 		-0.03214
C 1.0  		0.2592538849617414 		0.13347727941898127  0.2800781697271136 		Uiso   ? 		C 		-0.03237
C 1.0  		0.2606793271810785 		0.6369614289920503  0.27866298375237847 		Uiso   ? 		C 		-0.03214
C 1.0  		0.764956423383438 		0.13470409264893515  0.27789106412979575 		Uiso   ? 		C 		-0.03238
C 1.0  		0.757389218528111 		0.630827362842281  0.27853433048194803 		Uiso   ? 		C 		-0.03214
C 1.0  		0.3307411888908351 		0.9215820983413485  0.194523744890857 		Uiso   ? 		C 		-0.03240
C 1.0  		0.3333859292911912 		0.41858867406026107  0.19207933275267824 		Uiso   ? 		C 		-0.03214
C 1.0  		0.8319879101705001 		0.9181470212974777  0.19606758413602254 		Uiso   ? 		C 		-0.03236
C 1.0  		0.8341771220267243 		0.42104230052016883  0.194523744890857 		Uiso   ? 		C 		-0.13070
C 1.0  		0.24544984746119047 		0.08759446461870646  0.2135644289145652 		Uiso   ? 		C 		-0.03222
C 1.0  		0.25139684551342356 		0.5967219550495633  0.21536557470059167 		Uiso   ? 		C 		-0.03221
C 1.0  		0.7476562562352773 		0.09372853076847582  0.21806729337963138 		Uiso   ? 		C 		-0.12901
C 1.0  		0.7475919461023484 		0.5908332515457847  0.2152369214301612 		Uiso   ? 		C 		0.65942
C 1.0  		0.32088330702711654 		0.9171655707135147  0.33668560871651637 		Uiso   ? 		C 		0.65957
C 1.0  		0.33322390370998967 		0.4225144763961135  0.3388727143138342 		Uiso   ? 		C 		-0.13514
C 1.0  		0.8317096813073062 		0.9171655707135147  0.3378434881503905 		Uiso   ? 		C 		0.65941
C 1.0  		0.8302231426890234 		0.4254588281480028  0.3419603928041653 		Uiso   ? 		C 		0.65956
C 1.0  		0.046638338425370726 		0.21567376582589068  0.1901495336962213 		Uiso   ? 		C 		0.65955
C 1.0  		0.047873041049003195 		0.7115516733732457  0.1913074131300955 		Uiso   ? 		C 		0.65945
C 1.0  		0.5458235755266452 		0.2068407105702228  0.18719050847632074 		Uiso   ? 		C 		0.65955
C 1.0  		0.5437875916287747 		0.6983020904897439  0.18886300099191672 		Uiso   ? 		C 		0.65944
C 1.0  		0.0485132383389855 		0.20242418294238887  0.34041655355899975 		Uiso   ? 		C 		0.65955
C 1.0  		0.047117046104062865 		0.7002649916576701  0.3382294479616819 		Uiso   ? 		C 		0.65945
C 1.0  		0.546195770134217 		0.1965354794386103  0.34131712645201295 		Uiso   ? 		C 		0.65955
C 1.0  		0.5472883635683031 		0.7061536951614487  0.34247500588588714 		Uiso   ? 		C 		0.65944
C 1.0  		0.2595561855475196 		0.1332319167729905  0.19272259910483056 		Uiso   ? 		C 		0.65942
C 1.0  		0.26222369945540175 		0.636225341054078  0.1922079860231087 		Uiso   ? 		C 		0.65957
C 1.0  		0.7592191887305406 		0.13470409264893515  0.19503835797257885 		Uiso   ? 		C 		-0.13061
C 1.0  		0.7566378658750894 		0.6322995387182255  0.1932372121865524 		Uiso   ? 		C 		-0.13070
C 1.0  		0.2571049115158618 		0.13470409264893515  0.3364283021756555 		Uiso   ? 		C 		-0.12965
C 1.0  		0.2603858242181482 		0.6389243301599765  0.3351417694713508 		Uiso   ? 		C 		0.54392
C 1.0  		0.7562836721402478 		0.13053292766709199  0.33629964890522496 		Uiso   ? 		C 		0.54392
C 1.0  		0.7560661340489652 		0.6332809893021887  0.33771483487996007 		Uiso   ? 		C 		-0.13077
C 1.0  		0.20783661982888169 		0.3952792226911375  0.26270997821900127 		Uiso   ? 		C 		0.54391
C 1.0  		0.2080681338048424 		0.8968004710962804  0.2611661389738358 		Uiso   ? 		C 		0.54391
C 1.0  		0.7161677319631738 		0.38816370595740507  0.2565346212383392 		Uiso   ? 		C 		0.54392
C 1.0  		0.7228068204544528 		0.8901756796545295  0.25537674180446507 		Uiso   ? 		C 		0.54392
C 1.0  		0.23841127890577232 		0.0824418490529002  0.3537964936837677 		Uiso   ? 		C 		0.60440
C 1.0  		0.2452258328930193 		0.5950044165276278  0.35727013198539015 		Uiso   ? 		C 		-0.13600
C 1.0  		0.7399538242943269 		0.08342329963686329  0.3557262927402246 		Uiso   ? 		C 		0.60440
C 1.0  		0.745197613138707 		0.591569339483757  0.35919993104184705 		Uiso   ? 		C 		-0.12965
C 1.0  		0.5143045353801027 		0.080478947884974  0.26502573708674965 		Uiso   ? 		C 		0.60440
C 1.0  		0.5113486967711205 		0.5820001962901168  0.2651543903571801 		Uiso   ? 		C 		0.60440
C 1.0  		0.013872584298364347 		0.07704387084110316  0.2664409230614847 		Uiso   ? 		C 		0.60440
C 1.0  		0.013578675708399712 		0.5945136912356463  0.248944078282942 		Uiso   ? 		C 		0.60440
C 1.0  		0.3611936874948682 		0.20561389734026891  0.2717157071491336 		Uiso   ? 		C 		-0.24399
C 1.0  		0.3603627506091813 		0.7071351457454118  0.26978590809267666 		Uiso   ? 		C 		-0.24399
C 1.0  		0.8606025335372797 		0.2048778094022966  0.2710724407969813 		Uiso   ? 		C 		-0.24399
C 1.0  		0.8487262630213863 		0.6953577387378547  0.26862802865880253 		Uiso   ? 		C 		0.11818
C 1.0  		0.23245908695056344 		0.3901266071253313  0.21896786627264458 		Uiso   ? 		C 		-0.13600
C 1.0  		0.22116798817556102 		0.8941014819903819  0.21485096161886982 		Uiso   ? 		C 		0.11819
C 1.0  		0.7117799746579662 		0.39086269506330357  0.2149796148893003 		Uiso   ? 		C 		-0.12965
C 1.0  		0.7061756459447329 		0.8909117675925018  0.21240654948069107 		Uiso   ? 		C 		0.11818
C 1.0  		0.22039761171890823 		0.3940524094611837  0.3610010768278735 		Uiso   ? 		C 		0.11878
C 1.0  		0.20978980576010348 		0.8891942290705664  0.3576560917966815 		Uiso   ? 		C 		0.11878
C 1.0  		0.7155390590690333 		0.38988124447934047  0.3612583833687344 		Uiso   ? 		C 		0.11878
C 1.0  		0.7020637963567595 		0.8882127784866033  0.3554689861993637 		Uiso   ? 		C 		-0.08216
C 1.0  		0.5142193672585729 		0.09348316812248504  0.2172953737570486 		Uiso   ? 		C 		-0.13600
C 1.0  		0.512571339029 		0.5954951418196095  0.2172953737570486 		Uiso   ? 		C 		-0.08216
C 1.0  		0.010229703169289554 		0.08293257434488174  0.21768133356833996 		Uiso   ? 		C 		-0.08216
C 1.0  		0.017749300549359248 		0.5790558445382276  0.20057044860108866 		Uiso   ? 		C 		0.11983
C 1.0  		0.5164623064488302 		0.08096967317695555  0.3576560917966815 		Uiso   ? 		C 		-0.03222
C 1.0  		0.514954553223834 		0.5866620865639416  0.357784745067112 		Uiso   ? 		C 		0.11983
C 1.0  		0.017228925902387032 		0.09225635489253117  0.3575274385262511 		Uiso   ? 		C 		0.11983
C 1.0  		0.016610479189029637 		0.593777603297674  0.3570128254445292 		Uiso   ? 		C 		0.11921
C 1.0  		0.22901110074812236 		0.392580233585239  0.2740314660168819 		Uiso   ? 		C 		0.11921
C 1.0  		0.2303379349311629 		0.8945922072823634  0.272101666960425 		Uiso   ? 		C 		0.11921
C 1.0  		0.7314253574026199 		0.3859554421434881  0.27145840060827264 		Uiso   ? 		C 		-0.24357
C 1.0  		0.7335211394843779 		0.8899303170085386  0.27223032023085547 		Uiso   ? 		C 		-0.24357
C 1.0  		0.5149600881037768 		0.10771420158994996  0.27184436041956406 		Uiso   ? 		C 		-0.24357
C 1.0  		0.5120283212173788 		0.6080086367651389  0.2740314660168819 		Uiso   ? 		C 		-0.13600
C 1.0  		0.013857797159617637 		0.10378839925409757  0.27248762677171634 		Uiso   ? 		C 		-0.08298
C 1.0  		0.013062050765322297 		0.6121798017469822  0.2632245913007231 		Uiso   ? 		C 		-0.08299
C 1.0  		0.23946246501459 		0.38840906860339586  0.2010850616828105 		Uiso   ? 		C 		-0.08298
C 1.0  		0.23815840433907542 		0.8923839434684464  0.19992718224893638 		Uiso   ? 		C 		-0.03222
C 1.0  		0.7314670243709 		0.38816370595740507  0.20211428784625418 		Uiso   ? 		C 		-0.12965
C 1.0  		0.7266885846244007 		0.8894395917165572  0.19966987570807546 		Uiso   ? 		C 		-0.12965
C 1.0  		0.38213374935609823 		0.9512709785062322  0.25897903337651795 		Uiso   ? 		C 		-0.13077
C 1.0  		0.3798518699705545 		0.452448719206988  0.25717788759049154 		Uiso   ? 		C 		-0.13077
C 1.0  		0.8763113538808721 		0.9485719894003338  0.2557627016157564 		Uiso   ? 		C 		-0.13444
C 1.0  		0.8692713567675185 		0.4453332024732555  0.2548621287227432 		Uiso   ? 		C 		-0.03222
C 1.0  		0.23486221753705266 		0.3911080577092944  0.346334603998801 		Uiso   ? 		C 		-0.03223
C 1.0  		0.22638811092439112 		0.8879674158406126  0.3435042320493308 		Uiso   ? 		C 		-0.02997
C 1.0  		0.7310661157488253 		0.3869368927274512  0.3456913376466486 		Uiso   ? 		C 		-0.02998
C 1.0  		0.7260751858299964 		0.8882127784866033  0.3445334582127745 		Uiso   ? 		C 		-0.02997
C 1.0  		0.5130388789299631 		0.10599666306801453  0.2008277551419496 		Uiso   ? 		C 		-0.13444
C 1.0  		0.5112112298734929 		0.6084993620571205  0.20069910187151913 		Uiso   ? 		C 		-0.13444
C 1.0  		0.008961725573190554 		0.10207086073216214  0.20352947382098927 		Uiso   ? 		C 		-0.13600
C 1.0  		0.013673128413767166 		0.6070271861811759  0.19928391589678404 		Uiso   ? 		C 		-0.13600
C 1.0  		0.5141318779910836 		0.10010795956423595  0.3441474984014831 		Uiso   ? 		C 		-0.03230
C 1.0  		0.5136625039051507 		0.6070271861811759  0.3442761516719136 		Uiso   ? 		C 		-0.03230
C 1.0  		0.015027653680409744 		0.10697811365197764  0.34247500588588714 		Uiso   ? 		C 		-0.03035
C 1.0  		0.013640259068334992 		0.6065364608891942  0.34144577972244344 		Uiso   ? 		C 		-0.03035
C 1.0  		0.35022030938940296 		0.39233487093924824  0.25833576702436567 		Uiso   ? 		C 		-0.13444
C 1.0  		0.353073920601071 		0.8901756796545295  0.26065152589211393 		Uiso   ? 		C 		0.65551
C 1.0  		0.8390023256693784 		0.3852193542055158  0.25614866142704784 		Uiso   ? 		C 		0.65552
C 1.0  		0.8475866950570552 		0.8877220531946217  0.25769250067221333 		Uiso   ? 		C 		-0.02997
C 1.0  		0.5148999656268105 		0.16709196191971737  0.2634818978415841 		Uiso   ? 		C 		0.65728
C 1.0  		0.5189989435949622 		0.7184218274609874  0.25987960626953116 		Uiso   ? 		C 		0.65729
C 1.0  		0.020350166494464916 		0.1800961821572284  0.2574351941313524 		Uiso   ? 		C 		-0.02998
C 1.0  		0.01714994228970035 		0.7287270585926  0.2580784604835047 		Uiso   ? 		C 		-0.03230
C 1.0  		0.345046008939782 		0.38963588183334974  0.21510826815973075 		Uiso   ? 		C 		-0.12965
C 1.0  		0.34329937267391264 		0.8901756796545295  0.21613749432317444 		Uiso   ? 		C 		-0.02997
C 1.0  		0.856207553151182 		0.38988124447934047  0.2103480971538037 		Uiso   ? 		C 		-0.03222
C 1.0  		0.8526295181249475 		0.888458141132594  0.212663856021552 		Uiso   ? 		C 		-0.03222
C 1.0  		0.2679214423019557 		0.9544606929041124  0.19954122243764497 		Uiso   ? 		C 		0.57023
C 1.0  		0.2754622542887389 		0.4531848071449603  0.20211428784625418 		Uiso   ? 		C 		0.57022
C 1.0  		0.7632272363792416 		0.9527431543821769  0.20159967476453236 		Uiso   ? 		C 		0.57023
C 1.0  		0.7653419119217536 		0.45293944449896956  0.20288620746883695 		Uiso   ? 		C 		0.65552
C 1.0  		0.3547483416991875 		0.39331632152321133  0.3564982123628074 		Uiso   ? 		C 		-0.13077
C 1.0  		0.3187643948197201 		0.8887035037785848  0.36408875531820456 		Uiso   ? 		C 		0.65552
C 1.0  		0.8408207714759666 		0.3965060359210914  0.3649893282112178 		Uiso   ? 		C 		0.65552
C 1.0  		0.7915068848077552 		0.8911571302384926  0.3604864637461517 		Uiso   ? 		C 		-0.03230
C 1.0  		0.512637110044898 		0.16979095102561587  0.21150597658767784 		Uiso   ? 		C 		0.65552
C 1.0  		0.513160779759809 		0.7105702227892826  0.21176328312853876 		Uiso   ? 		C 		0.57021
C 1.0  		0.017300767768139227 		0.17739719305132987  0.2135644289145652 		Uiso   ? 		C 		0.57024
C 1.0  		0.017883699697026134 		0.7238198056727845  0.21317846910327384 		Uiso   ? 		C 		0.57024
C 1.0  		0.5177202528570903 		0.21395622730395528  0.3624162628026086 		Uiso   ? 		C 		-0.03035
C 1.0  		0.5162782383229584 		0.7206300912749043  0.3647320216703569 		Uiso   ? 		C 		-0.03035
C 1.0  		0.017021191680965303 		0.21763666699381687  0.36074377028701254 		Uiso   ? 		C 		-0.13077
C 1.0  		0.016571247025697955 		0.7105702227892826  0.3620303029913172 		Uiso   ? 		C 		-0.03035
C 1.0  		0.3294860829145577 		0.3920895082932575  0.2713297473378422 		Uiso   ? 		C 		-0.03035
C 1.0  		0.32902966178240184 		0.8896849543625479  0.2717157071491336 		Uiso   ? 		C 		-0.03230
C 1.0  		0.8209735303668008 		0.38571007949749736  0.2703005211743985 		Uiso   ? 		C 		-0.13444
C 1.0  		0.8243595275822722 		0.8867406026106586  0.26965725482224623 		Uiso   ? 		C 		-0.03230
C 1.0  		0.3691567530533168 		0.2134655020119737  0.3649893282112178 		Uiso   ? 		C 		0.57047
C 1.0  		0.3595808497566869 		0.714496025125135  0.3674337403493965 		Uiso   ? 		C 		0.57046
C 1.0  		0.8713696383042921 		0.21493767788791837  0.36717643380853565 		Uiso   ? 		C 		0.57047
C 1.0  		0.8814108906988029 		0.7233290803808029  0.3606151170165821 		Uiso   ? 		C 		0.65729
C 1.0  		0.2598708874760178 		0.9532338796741584  0.3432469255084699 		Uiso   ? 		C 		0.65728
C 1.0  		0.2694972553637756 		0.4561291588968496  0.3455626843762182 		Uiso   ? 		C 		0.65729
C 1.0  		0.7587890144829058 		0.951516341152223  0.34581999091707916 		Uiso   ? 		C 		-0.13077
C 1.0  		0.760233350162997 		0.4512219059770341  0.34440480494234404 		Uiso   ? 		C 		0.65729
C 1.0  		0.5148018445515037 		0.18941996270487782  0.27544665199161694 		Uiso   ? 		C 		-0.13444
C 1.0  		0.5174804772281931 		0.7005103543036608  0.27390281274645145 		Uiso   ? 		C 		0.57045
C 1.0  		0.016481842239283603 		0.19530866620865642  0.27223032023085547 		Uiso   ? 		C 		0.57048
C 1.0  		0.016577723502586406 		0.7059083325154578  0.2706864809856899 		Uiso   ? 		C 		0.57047
C 1.0  		0.3253983050491687 		0.38816370595740507  0.20095640841238005 		Uiso   ? 		C 		0.65367
C 1.0  		0.32471411964494695 		0.8887035037785848  0.20172832803496282 		Uiso   ? 		C 		0.54468
C 1.0  		0.8314031440566434 		0.3891451565413682  0.19992718224893638 		Uiso   ? 		C 		0.54544
C 1.0  		0.8288546905466244 		0.8872313279026403  0.20121371495324097 		Uiso   ? 		C 		0.54775
C 1.0  		0.330213363844995 		0.39184414564726666  0.34504807129449633 		Uiso   ? 		C 		0.54712
C 1.0  		0.3105911602349014 		0.8872313279026403  0.346334603998801 		Uiso   ? 		C 		-0.13819
C 1.0  		0.8238368317893405 		0.3935616841692021  0.34929362921870155 		Uiso   ? 		C 		0.54273
C 1.0  		0.8101884247270581 		0.8877220531946217  0.34749248343267514 		Uiso   ? 		C 		0.54364
C 1.0  		0.5126593475825125 		0.185984885661007  0.19606758413602254 		Uiso   ? 		C 		-0.13442
C 1.0  		0.5113640845298459 		0.691677299047993  0.19735411684032714 		Uiso   ? 		C 		0.12425
C 1.0  		0.015009685132713294 		0.19236431445676713  0.19902660935592312 		Uiso   ? 		C 		0.12399
C 1.0  		0.01598839643076644 		0.7034547060555502  0.1991552626263536 		Uiso   ? 		C 		0.12427
C 1.0  		0.3024200518030977 		0.2402100304249681  0.13148364237993113 		Uiso   ? 		C 		-0.07384
C 1.0  		0.29985632419334235 		0.7412405535381293  0.13135498910950064 		Uiso   ? 		C 		-0.13482
C 1.0  		0.8010863428153354 		0.24266365688487587  0.13379940124767942 		Uiso   ? 		C 		-0.13502
C 1.0  		0.8030418498925167 		0.7429580920600648  0.13392805451810988 		Uiso   ? 		C 		-0.07406
C 1.0  		0.5150407275923768 		0.1945725782706841  0.3478784432439665 		Uiso   ? 		C 		-0.07390
C 1.0  		0.5144246020249789 		0.702473255471587  0.3495509357595625 		Uiso   ? 		C 		0.12125
C 1.0  		0.015942979758591574 		0.19678084208460106  0.347749789973536 		Uiso   ? 		C 		0.12145
C 1.0  		0.014702336627982038 		0.6953577387378547  0.3455626843762182 		Uiso   ? 		C 		0.12162
C 1.0  		0.22671672304475768 		0.3535675728727059  0.13096902929820928 		Uiso   ? 		C 		-0.02699
C 1.0  		0.22488907398828745 		0.8560702718618118  0.1295538433234742 		Uiso   ? 		C 		-0.08033
C 1.0  		0.7245330533676773 		0.35602119933261367  0.1331561348955271 		Uiso   ? 		C 		-0.08037
C 1.0  		0.7268149327532211 		0.854843458631858  0.13186960219122248 		Uiso   ? 		C 		-0.08014
C 1.0  		0.2223289657395498 		0.3562665619786044  0.2781483706706566 		Uiso   ? 		C 		-0.13470
C 1.0  		0.2260260611636474 		0.8587692609677103  0.2740314660168819 		Uiso   ? 		C 		-0.13470
C 1.0  		0.7224474974667027 		0.35185003435077045  0.2777624108593652 		Uiso   ? 		C 		-0.02735
C 1.0  		0.7215924888584315 		0.8545980959858672  0.27866298375237847 		Uiso   ? 		C 		-0.02770
C 1.0  		0.4796996724508518 		0.09839042104230053  0.13161229565036156 		Uiso   ? 		C 		-0.02746
C 1.0  		0.4771359448410965 		0.5994209441554619  0.13032576294605697 		Uiso   ? 		C 		-0.13825
C 1.0  		0.9780965322227436 		0.10158013544018059  0.13289882835466618 		Uiso   ? 		C 		-0.13813
C 1.0  		0.9780826866809426 		0.6026106585533418  0.13495728068155355 		Uiso   ? 		C 		-0.13835
C 1.0  		0.48167134621579344 		0.10403376190008834  0.2753179987211865 		Uiso   ? 		C 		-0.02782
C 1.0  		0.4812084486067491 		0.6062910982432035  0.2773764510480739 		Uiso   ? 		C 		-0.02819
C 1.0  		0.9789048259437816 		0.09937187162626364  0.2749320389098951 		Uiso   ? 		C 		0.65149
C 1.0  		0.9771165227096321 		0.5977034056335264  0.2719730136899945 		Uiso   ? 		C 		0.65184
C 1.0  		0.22279329190652955 		0.35209539699676123  0.1922079860231087 		Uiso   ? 		C 		0.65479
C 1.0  		0.2271366554704636 		0.8563156345078027  0.19297990564569148 		Uiso   ? 		C 		0.65505
C 1.0  		0.7235099483283502 		0.35185003435077045  0.19696815702903575 		Uiso   ? 		C 		-0.13858
C 1.0  		0.7197698877209144 		0.8543527333398765  0.19439509162042654 		Uiso   ? 		C 		-0.02771
C 1.0  		0.22612091949604918 		0.3557758366866228  0.3401592470181388 		Uiso   ? 		C 		-0.02669
C 1.0  		0.21998420477901245 		0.852635194817941  0.3368142619869468 		Uiso   ? 		C 		-0.13456
C 1.0  		0.7218340986722984 		0.3506232211208166  0.3391300208546952 		Uiso   ? 		C 		0.65158
C 1.0  		0.7247229003753579 		0.8553341839238395  0.3411884731815825 		Uiso   ? 		C 		-0.02778
C 1.0  		0.24387260584143508 		0.08783982726469723  0.2601369128103921 		Uiso   ? 		C 		0.65194
C 1.0  		0.23983672112510948 		0.5859259986259692  0.26270997821900127 		Uiso   ? 		C 		0.57010
C 1.0  		0.7421926081536551 		0.08195112376091865  0.26232401840770997 		Uiso   ? 		C 		0.56676
C 1.0  		0.7372738934025791 		0.5795465698302091  0.26193805859641855 		Uiso   ? 		C 		0.56336
C 1.0  		0.4764201883065008 		0.09225635489253117  0.1922079860231087 		Uiso   ? 		C 		0.56392
C 1.0  		0.4762595912832347 		0.5942683285896556  0.19182202621181732 		Uiso   ? 		C 		0.57325
C 1.0  		0.9733296168720859 		0.09544606929041125  0.19619623740645298 		Uiso   ? 		C 		0.56885
C 1.0  		0.978253509884992 		0.6004023947394249  0.19478105143171792 		Uiso   ? 		C 		0.65227
C 1.0  		0.4794279200645464 		0.09274708018451272  0.33771483487996007 		Uiso   ? 		C 		-0.02852
C 1.0  		0.4791469644283588 		0.6008931200314064  0.33771483487996007 		Uiso   ? 		C 		0.65122
C 1.0  		0.9809727865990605 		0.10010795956423595  0.3372002217982382 		Uiso   ? 		C 		-0.02833
C 1.0  		0.9791844833649108 		0.5984394935714987  0.33488446293048996 		Uiso   ? 		C 		-0.02720
C 1.0  		0.30481449842572805 		0.35209539699676123  0.13199825546165297 		Uiso   ? 		C 		0.65408
C 1.0  		0.29792643105566985 		0.8504269310040241  0.13264152181380526 		Uiso   ? 		C 		0.65560
C 1.0  		0.8032025605747719 		0.3535675728727059  0.13431401432940127 		Uiso   ? 		C 		0.56822
C 1.0  		0.8018721070307137 		0.8523898321719503  0.13482862741112311 		Uiso   ? 		C 		0.57141
C 1.0  		0.30399093060495364 		0.3572480125625675  0.27789106412979575 		Uiso   ? 		C 		-0.13850
C 1.0  		0.29946432685310453 		0.8543527333398765  0.2759612650733388 		Uiso   ? 		C 		0.57175
C 1.0  		0.7974565282990266 		0.35185003435077045  0.2780197174002262 		Uiso   ? 		C 		0.56527
C 1.0  		0.7974338851343779 		0.8511630189419963  0.27686183796635205 		Uiso   ? 		C 		0.57007
C 1.0  		0.47788732981915166 		0.1712631269015605  0.12852461716003052 		Uiso   ? 		C 		0.57134
C 1.0  		0.4789030657935661 		0.6718029247227403  0.12993980313476558 		Uiso   ? 		C 		0.65514
C 1.0  		0.9778285618653665 		0.17371675336146825  0.12981114986433512 		Uiso   ? 		C 		-0.13514
C 1.0  		0.9779198008367507 		0.6715575620767495  0.13238421527294433 		Uiso   ? 		C 		0.65942
C 1.0  		0.48236953982972697 		0.18107763274119149  0.28252258186529233 		Uiso   ? 		C 		0.65956
C 1.0  		0.48102149103997294 		0.676464814996565  0.2790489435636699 		Uiso   ? 		C 		0.54322
C 1.0  		0.981164987077734 		0.1791147315732653  0.280206822997544 		Uiso   ? 		C 		0.54324
C 1.0  		0.9800470237060053 		0.6779369908725096  0.275189345450756 		Uiso   ? 		C 		-0.12901
C 1.0  		0.3005318256337053 		0.3516046717047797  0.19400913180913515 		Uiso   ? 		C 		0.54323
C 1.0  		0.29967681702543403 		0.8543527333398765  0.1941377850795656 		Uiso   ? 		C 		0.54324
C 1.0  		0.8008082276111306 		0.3543036608106782  0.1955529710543007 		Uiso   ? 		C 		0.54322
C 1.0  		0.7986190157549062 		0.8514083815879872  0.19632489067688347 		Uiso   ? 		C 		0.54323
C 1.0  		0.3006063619474175 		0.3543036608106782  0.3392586741251256 		Uiso   ? 		C 		0.54322
C 1.0  		0.29429882402633145 		0.8533712827559133  0.3368142619869468 		Uiso   ? 		C 		0.54323
C 1.0  		0.8010295154063081 		0.35602119933261367  0.3405452068294302 		Uiso   ? 		C 		0.54322
C 1.0  		0.7986278133777541 		0.8531259201099225  0.3391300208546952 		Uiso   ? 		C 		0.54323
C 1.0  		0.4806432255825471 		0.17592501717538522  0.1877051215580426 		Uiso   ? 		C 		0.54322
C 1.0  		0.47748784975501235 		0.6681224850328786  0.191178759859665 		Uiso   ? 		C 		0.54323
C 1.0  		0.9796775558714274 		0.1791147315732653  0.19182202621181732 		Uiso   ? 		C 		0.60502
C 1.0  		0.9813701081851511 		0.6754833644126019  0.1938804785387047 		Uiso   ? 		C 		0.60536
C 1.0  		0.4796201205432201 		0.17175385219354206  0.3402879002885693 		Uiso   ? 		C 		0.60502
C 1.0  		0.47821097535452045 		0.6789184414564727  0.3401592470181388 		Uiso   ? 		C 		0.60528
C 1.0  		0.9805733388599548 		0.1702816763175974  0.34131712645201295 		Uiso   ? 		C 		0.60501
C 1.0  		0.9791706701481435 		0.6727843753067033  0.33758618160952963 		Uiso   ? 		C 		0.60530
C 1.0  		0.36703832780691 		0.208803611738149  0.1981260364629099 		Uiso   ? 		C 		0.60501
C 1.0  		0.36205387436496966 		0.7054176072234764  0.19774007665161852 		Uiso   ? 		C 		-0.13523
C 1.0  		0.8637746120224863 		0.2078221611541859  0.19954122243764497 		Uiso   ? 		C 		0.60541
C 1.0  		0.864847289064917 		0.7076258710373933  0.20134236822367144 		Uiso   ? 		C 		-0.13061
C 1.0  		0.3569744322477504 		0.19972519383649034  0.34865036286654927 		Uiso   ? 		C 		0.60501
C 1.0  		0.3537010189532536 		0.7044361566395133  0.3496795890299929 		Uiso   ? 		C 		0.60537
C 1.0  		0.8595794284979527 		0.20070664442045344  0.3508374684638671 		Uiso   ? 		C 		0.60502
C 1.0  		0.8613312430256523 		0.7027186181175779  0.3469778703509533 		Uiso   ? 		C 		0.60536
C 1.0  		0.07304675531020895 		0.13249582883501818  0.20275755419840652 		Uiso   ? 		C 		-0.13390
C 1.0  		0.0782336030865726 		0.6413779566198842  0.19992718224893638 		Uiso   ? 		C 		-0.24297
C 1.0  		0.5755137977017939 		0.1361762685248798  0.2008277551419496 		Uiso   ? 		C 		-0.24540
C 1.0  		0.574102331367135 		0.6369614289920503  0.20069910187151913 		Uiso   ? 		C 		-0.24297
C 1.0  		0.07911500456338752 		0.14378251055059377  0.3446621114832049 		Uiso   ? 		C 		-0.24537
C 1.0  		0.07813499505027605 		0.6399057807439397  0.3409311666407216 		Uiso   ? 		C 		-0.24297
C 1.0  		0.5781775619057813 		0.13470409264893515  0.3449194180240659 		Uiso   ? 		C 		-0.24541
C 1.0  		0.5780498342279473 		0.6372067916380411  0.34363288531976127 		Uiso   ? 		C 		0.11549
C 1.0  		0.3319057211657744 		0.23628422808911573  0.2010850616828105 		Uiso   ? 		C 		0.11549
C 1.0  		0.3283605554849721 		0.7353518500343508  0.1987693028150622 		Uiso   ? 		C 		0.11549
C 1.0  		0.8312664237630172 		0.23800176661105116  0.2008277551419496 		Uiso   ? 		C 		0.11542
C 1.0  		0.8301155910458562 		0.7363333006183139  0.20069910187151913 		Uiso   ? 		C 		-0.13523
C 1.0  		0.32319130295430426 		0.2299047992933556  0.3489076694074102 		Uiso   ? 		C 		0.12004
C 1.0  		0.31866702034841454 		0.7333889488664246  0.3489076694074102 		Uiso   ? 		C 		0.11543
C 1.0  		0.8260087893768361 		0.23088624987731868  0.3507088151934366 		Uiso   ? 		C 		0.12007
C 1.0  		0.8263629831116777 		0.7326528609284524  0.3487790161369797 		Uiso   ? 		C 		-0.13060
C 1.0  		0.36660687098536243 		0.2134655020119737  0.25473347545231273 		Uiso   ? 		C 		0.11543
C 1.0  		0.37187473155232686 		0.7203847286289136  0.2534469427480081 		Uiso   ? 		C 		0.12008
C 1.0  		0.8773874229663428 		0.2222985572676416  0.2562773146974783 		Uiso   ? 		C 		-0.08709
C 1.0  		0.8540825054438641 		0.7039454313475317  0.25113118388025985 		Uiso   ? 		C 		-0.08943
C 1.0  		0.07752664417482487 		0.135930905878889  0.2719730136899945 		Uiso   ? 		C 		-0.13390
C 1.0  		0.07712300877975642 		0.643831583079792  0.26258132494857084 		Uiso   ? 		C 		-0.08709
C 1.0  		0.5793145490811412 		0.13740308175483368  0.2705578277152595 		Uiso   ? 		C 		-0.08943
C 1.0  		0.574102331367135 		0.6369614289920503  0.27223032023085547 		Uiso   ? 		C 		-0.08709
C 1.0  		0.08060853894458206 		0.22794189812542942  0.2742887725577428 		Uiso   ? 		C 		-0.08943
C 1.0  		0.0785137797937252 		0.7375601138482677  0.2699145613631071 		Uiso   ? 		C 		-0.08930
C 1.0  		0.5769087240466919 		0.21886348022377075  0.2742887725577428 		Uiso   ? 		C 		-0.08573
C 1.0  		0.5800956710046006 		0.7343703994503877  0.275189345450756 		Uiso   ? 		C 		-0.08930
C 1.0  		0.3248759502332041 		0.23284915104524487  0.272101666960425 		Uiso   ? 		C 		-0.08572
C 1.0  		0.3257208630035691 		0.7355972126803416  0.2695286015518158 		Uiso   ? 		C 		-0.08930
C 1.0  		0.82687634531185 		0.23432132692118954  0.2705578277152595 		Uiso   ? 		C 		-0.08570
C 1.0  		0.8144195453469845 		0.7240651683187752  0.2703005211743985 		Uiso   ? 		C 		0.11818
C 1.0  		0.2932041044392303 		0.9893021886348023  0.1282673106191696 		Uiso   ? 		C 		-0.12902
C 1.0  		0.2891718390839223 		0.4865541269997056  0.13006845640519604 		Uiso   ? 		C 		-0.13070
C 1.0  		0.7920652903781016 		0.9883207380508391  0.13367074797724895 		Uiso   ? 		C 		0.11818
C 1.0  		0.7901426526463527 		0.4885170281676318  0.13405670778854034 		Uiso   ? 		C 		0.11818
C 1.0  		0.292796719340267 		0.9927372656786733  0.27544665199161694 		Uiso   ? 		C 		0.11809
C 1.0  		0.2916013625389552 		0.492688193149475  0.27557530526204743 		Uiso   ? 		C 		-0.13523
C 1.0  		0.7927268326176746 		0.9870939248208853  0.27789106412979575 		Uiso   ? 		C 		0.12080
C 1.0  		0.7889399267801285 		0.48483658847777017  0.27789106412979575 		Uiso   ? 		C 		-0.03262
C 1.0  		0.36889746665979867 		0.17469820394543134  0.13071172275734835 		Uiso   ? 		C 		0.11809
C 1.0  		0.36754294139315613 		0.6747472764746295  0.12929653678261327 		Uiso   ? 		C 		0.12086
C 1.0  		0.8652504374989959 		0.17592501717538522  0.13302748162509664 		Uiso   ? 		C 		0.11810
C 1.0  		0.8711622450598375 		0.6781823535185003  0.13302748162509664 		Uiso   ? 		C 		0.12087
C 1.0  		0.3750226569809938 		0.18524879772303465  0.27866298375237847 		Uiso   ? 		C 		-0.24315
C 1.0  		0.3709867722646681 		0.6833349690843067  0.27686183796635205 		Uiso   ? 		C 		-0.13393
C 1.0  		0.8689942478103266 		0.1778879183433114  0.27763375758893477 		Uiso   ? 		C 		-0.24404
C 1.0  		0.8636088857463116 		0.673275100598685  0.27570395853247787 		Uiso   ? 		C 		-0.24315
C 1.0  		0.2920277714415497 		0.9907743645107471  0.19169337294138686 		Uiso   ? 		C 		-0.24407
C 1.0  		0.28856723791236594 		0.4870448522916872  0.19310855891612191 		Uiso   ? 		C 		-0.24315
C 1.0  		0.7893598592058344 		0.987584650112867  0.19503835797257885 		Uiso   ? 		C 		-0.24411
C 1.0  		0.7908940052993743 		0.4870448522916872  0.1955529710543007 		Uiso   ? 		C 		-0.08678
C 1.0  		0.2883409021982354 		0.9880753754048485  0.33732887506866865 		Uiso   ? 		C 		-0.08730
C 1.0  		0.2929003752955167 		0.4914613799195211  0.3384867545025428 		Uiso   ? 		C 		-0.08678
C 1.0  		0.7892941205149699 		0.9866031995289037  0.3401592470181388 		Uiso   ? 		C 		-0.08730
C 1.0  		0.7904032862638508 		0.48606340170772405  0.3395159806659865 		Uiso   ? 		C 		-0.08678
C 1.0  		0.374849512630985 		0.18107763274119149  0.19272259910483056 		Uiso   ? 		C 		-0.08730
C 1.0  		0.3691289806357594 		0.6762194523505741  0.19285125237526102 		Uiso   ? 		C 		-0.08723
C 1.0  		0.8675966270174686 		0.17764255569732065  0.1955529710543007 		Uiso   ? 		C 		-0.13523
C 1.0  		0.8738436045095205 		0.6801452546864265  0.1955529710543007 		Uiso   ? 		C 		-0.08611
C 1.0  		0.36851415328341974 		0.17690646775934832  0.3415744329928739 		Uiso   ? 		C 		-0.08723
C 1.0  		0.3713066680961421 		0.6865246834821868  0.3405452068294302 		Uiso   ? 		C 		-0.08607
C 1.0  		0.8725737113944965 		0.17739719305132987  0.34247500588588714 		Uiso   ? 		C 		-0.08723
C 1.0  		0.8692979769540402 		0.6757287270585927  0.339644633936417 		Uiso   ? 		C 		-0.08605
C 1.0  		0.1090983563994658 		0.15997644518598492  0.19568162432473113 		Uiso   ? 		C 		-0.13061
C 1.0  		0.11260287804288907 		0.6722936500147219  0.19722546356989668 		Uiso   ? 		C 		-0.13391
C 1.0  		0.6122686079989038 		0.16463833545980963  0.19593893086559205 		Uiso   ? 		C 		-0.13061
C 1.0  		0.6079961613876643 		0.6639513200510355  0.19478105143171792 		Uiso   ? 		C 		-0.03262
C 1.0  		0.11354769706460892 		0.16930022573363432  0.3378434881503905 		Uiso   ? 		C 		-0.13070
C 1.0  		0.1107779557594126 		0.665668858572971  0.33449850311919854 		Uiso   ? 		C 		-0.12903
C 1.0  		0.6141393525815895 		0.16243007164589265  0.33874406104340377 		Uiso   ? 		C 		-0.13070
C 1.0  		0.6117399716989951 		0.6659142212189617  0.3388727143138342 		Uiso   ? 		C 		-0.12901
C 1.0  		0.25216430020413827 		0.9539699676121308  0.2149796148893003 		Uiso   ? 		C 		-0.03261
C 1.0  		0.26719041166762364 		0.450240455393071  0.22038305224737967 		Uiso   ? 		C 		-0.03262
C 1.0  		0.7400000689044586 		0.9517617037982138  0.21304981583284338 		Uiso   ? 		C 		-0.03254
C 1.0  		0.7432012670312025 		0.4507311806850525  0.2156228812414526 		Uiso   ? 		C 		-0.13514
C 1.0  		0.30401488866854887 		0.24339974482284818  0.19529566451343977 		Uiso   ? 		C 		-0.03209
C 1.0  		0.2981564028147061 		0.7412405535381293  0.19490970470214838 		Uiso   ? 		C 		-0.03254
C 1.0  		0.8002275845031693 		0.24094611836294044  0.1970968102994662 		Uiso   ? 		C 		-0.03210
C 1.0  		0.7992651702357537 		0.740504465600157  0.19671085048817483 		Uiso   ? 		C 		-0.13514
C 1.0  		0.2994780587359165 		0.24070075571694965  0.34105981991115203 		Uiso   ? 		C 		-0.13515
C 1.0  		0.29756059926599765 		0.7434488173520464  0.33938732739555605 		Uiso   ? 		C 		-0.13523
C 1.0  		0.8061379635060757 		0.2451172833447836  0.34144577972244344 		Uiso   ? 		C 		-0.03254
C 1.0  		0.8010396279281022 		0.7432034547060556  0.3415744329928739 		Uiso   ? 		C 		-0.13392
C 1.0  		0.11258153309329845 		0.16439297281381884  0.13264152181380526 		Uiso   ? 		C 		-0.13523
C 1.0  		0.11096637420915778 		0.6668956718029247  0.13341344143638803 		Uiso   ? 		C 		-0.13391
C 1.0  		0.6159707513419544 		0.16439297281381884  0.13277017508423575 		Uiso   ? 		C 		-0.03221
C 1.0  		0.6102854098381205 		0.6664049465109433  0.13096902929820928 		Uiso   ? 		C 		-0.12900
C 1.0  		0.11100429147354307 		0.16463833545980963  0.27570395853247787 		Uiso   ? 		C 		-0.03209
C 1.0  		0.11166078579416283 		0.6661595838649524  0.2705578277152595 		Uiso   ? 		C 		-0.03222
C 1.0  		0.6155874379655755 		0.16660123662773582  0.275189345450756 		Uiso   ? 		C 		-0.03214
C 1.0  		0.6091243509401763 		0.6649327706349986  0.27583261180290836 		Uiso   ? 		C 		-0.03237
C 1.0  		0.23262919587564518 		0.1388752576307783  0.27261628004214683 		Uiso   ? 		C 		-0.03214
C 1.0  		0.23088255960977577 		0.639415055451958  0.27390281274645145 		Uiso   ? 		C 		0.65790
C 1.0  		0.7352823355710161 		0.13740308175483368  0.2732595463942991 		Uiso   ? 		C 		-0.03239
C 1.0  		0.7282058497512125 		0.6345078025321426  0.27287358658300775 		Uiso   ? 		C 		0.65790
C 1.0  		0.30284735329371615 		0.24658945922072822  0.2791775968341003 		Uiso   ? 		C 		0.65813
C 1.0  		0.3020404881306135 		0.7468838943959173  0.2771191445072129 		Uiso   ? 		C 		0.65790
C 1.0  		0.8004488722983469 		0.24266365688487587  0.2773764510480739 		Uiso   ? 		C 		0.65813
C 1.0  		0.7933066477876791 		0.7387869270782217  0.2791775968341003 		Uiso   ? 		C 		0.65811
C 1.0  		0.07800171580861123 		0.22867798606340173  0.19954122243764497 		Uiso   ? 		C 		0.65779
C 1.0  		0.07944475327364414 		0.7355972126803416  0.19928391589678404 		Uiso   ? 		C 		-0.13514
C 1.0  		0.5775045275954004 		0.21665521640985377  0.19799738319247945 		Uiso   ? 		C 		0.65811
C 1.0  		0.5740251006054625 		0.7167042889390519  0.19902660935592312 		Uiso   ? 		C 		0.65779
C 1.0  		0.08095250649864036 		0.2299047992933556  0.34749248343267514 		Uiso   ? 		C 		0.65942
C 1.0  		0.0798169478812158 		0.7252919815487291  0.3455626843762182 		Uiso   ? 		C 		0.65957
C 1.0  		0.5789285412568022 		0.22205319462165082  0.3495509357595625 		Uiso   ? 		C 		0.65942
C 1.0  		0.5796049519690771 		0.7333889488664246  0.3496795890299929 		Uiso   ? 		C 		0.65957
C 1.0  		0.2336916467372928 		0.1388752576307783  0.19966987570807546 		Uiso   ? 		C 		0.65955
C 1.0  		0.23783131775174526 		0.6448130336637551  0.20057044860108866 		Uiso   ? 		C 		0.65944
C 1.0  		0.7357994474750832 		0.143537147904603  0.20262890092797603 		Uiso   ? 		C 		0.65955
C 1.0  		0.733218124619632 		0.6411325939738934  0.20224294111668467 		Uiso   ? 		C 		0.65945
C 1.0  		0.22849327456508756 		0.13740308175483368  0.34337557877890035 		Uiso   ? 		C 		-0.03254
C 1.0  		0.23150475602702794 		0.6423594072038473  0.3409311666407216 		Uiso   ? 		C 		-0.03212
C 1.0  		0.7298714732264813 		0.135930905878889  0.34337557877890035 		Uiso   ? 		C 		-0.03254
C 1.0  		0.7285257455826866 		0.6376975169300226  0.3442761516719136 		Uiso   ? 		C 		-0.03211
C 1.0  		0.35558127543775486 		0.9529885170281677  0.20185698130539326 		Uiso   ? 		C 		-0.03254
C 1.0  		0.35929726432260656 		0.4517126312690156  0.19941256916721453 		Uiso   ? 		C 		-0.03206
C 1.0  		0.8591982579584767 		0.9500441652762784  0.2034008205505588 		Uiso   ? 		C 		-0.13061
C 1.0  		0.8605046397799507 		0.452448719206988  0.20172832803496282 		Uiso   ? 		C 		-0.03261
C 1.0  		0.3414735901274457 		0.9485719894003338  0.3449194180240659 		Uiso   ? 		C 		-0.03221
C 1.0  		0.36168512080935933 		0.45563843360486805  0.3441474984014831 		Uiso   ? 		C 		-0.03262
C 1.0  		0.8408342927246886 		0.9502895279222693  0.34440480494234404 		Uiso   ? 		C 		0.65790
C 1.0  		0.8540665170651599 		0.45784669741878503  0.3495509357595625 		Uiso   ? 		C 		0.65813
C 1.0  		0.2655864362023575 		0.10746883894395919  0.19954122243764497 		Uiso   ? 		C 		0.65790
C 1.0  		0.27115659735510017 		0.6141427029149084  0.2008277551419496 		Uiso   ? 		C 		0.65813
C 1.0  		0.7659285768706472 		0.1111492786338208  0.20301486073926744 		Uiso   ? 		C 		0.65811
C 1.0  		0.7653494759796104 		0.6084993620571205  0.20134236822367144 		Uiso   ? 		C 		0.65778
C 1.0  		0.2607473056839469 		0.10501521248405143  0.34131712645201295 		Uiso   ? 		C 		0.65811
C 1.0  		0.26602396387375926 		0.6136519776229267  0.34337557877890035 		Uiso   ? 		C 		0.65779
C 1.0  		0.7630740730709552 		0.10501521248405143  0.3435042320493308 		Uiso   ? 		C 		0.65811
C 1.0  		0.7632486459788994 		0.6072725488271666  0.3445334582127745 		Uiso   ? 		C 		0.65779
C 1.0  		0.07206067494724329 		0.1177740700755717  0.21935382608393597 		Uiso   ? 		C 		-0.13070
C 1.0  		0.07789562504841321 		0.6109529885170283  0.20172832803496282 		Uiso   ? 		C 		0.65811
C 1.0  		0.5732416575360438 		0.11335754244773777  0.21317846910327384 		Uiso   ? 		C 		0.65777
C 1.0  		0.5724042441734684 		0.6195406811267054  0.2149796148893003 		Uiso   ? 		C 		0.65790
C 1.0  		0.36019911816098804 		0.9537246049661401  0.2703005211743985 		Uiso   ? 		C 		0.65813
C 1.0  		0.36323829070653046 		0.45661988418883115  0.2713297473378422 		Uiso   ? 		C 		-0.03221
C 1.0  		0.8553164937885288 		0.9507802532142507  0.26798476230665025 		Uiso   ? 		C 		0.65813
C 1.0  		0.8512272873652044 		0.44876827951712633  0.26798476230665025 		Uiso   ? 		C 		-0.03214
C 1.0  		0.2652271945485628 		0.10845028952792228  0.27287358658300775 		Uiso   ? 		C 		-0.03237
C 1.0  		0.26506659752529665 		0.6104622632250467  0.27261628004214683 		Uiso   ? 		C 		-0.03214
C 1.0  		0.7681497654842797 		0.1062420257140053  0.27223032023085547 		Uiso   ? 		C 		-0.03238
C 1.0  		0.7615880704225839 		0.6031013838453235  0.27223032023085547 		Uiso   ? 		C 		-0.03214
C 1.0  		0.07792291050498083 		0.12439886151732261  0.3586853179601252 		Uiso   ? 		C 		-0.03240
C 1.0  		0.07727807092307973 		0.6207674943566591  0.35469706657678096 		Uiso   ? 		C 		-0.03214
C 1.0  		0.5753929521278828 		0.11851015801354402  0.3610010768278735 		Uiso   ? 		C 		-0.03236
C 1.0  		0.5746976479548538 		0.6109529885170283  0.35508302638807226 		Uiso   ? 		C 		-0.13070
C 1.0  		0.11342647818869711 		0.2404553930709589  0.13006845640519604 		Uiso   ? 		C 		-0.03222
C 1.0  		0.1114914234730825 		0.7397683776621848  0.13135498910950064 		Uiso   ? 		C 		-0.03221
C 1.0  		0.6135561286846574 		0.24413583276082051  0.1312263358390702 		Uiso   ? 		C 		-0.12901
C 1.0  		0.6151500729620845 		0.7390322897242124  0.12878192370089142 		Uiso   ? 		C 		0.65942
C 1.0  		0.11356907433923315 		0.2505152615565806  0.28162200897227907 		Uiso   ? 		C 		0.65957
C 1.0  		0.11193399906343732 		0.7432034547060556  0.27364550620559047 		Uiso   ? 		C 		-0.13514
C 1.0  		0.6120270305100705 		0.24192756894690354  0.28033547626797445 		Uiso   ? 		C 		0.65941
C 1.0  		0.6139584658646674 		0.7434488173520464  0.28059278280883543 		Uiso   ? 		C 		0.65956
C 1.0  		0.0820802090901627 		0.20708607321621358  0.26193805859641855 		Uiso   ? 		C 		0.65955
C 1.0  		0.07825363313721678 		0.7638139169692807  0.26168075205555763 		Uiso   ? 		C 		0.65945
C 1.0  		0.5742532705045629 		0.1982530179605457  0.2610374857034053 		Uiso   ? 		C 		0.65955
C 1.0  		0.5789721237440073 		0.7461478064579449  0.2588503801060875 		Uiso   ? 		C 		0.65944
C 1.0  		0.22698457974314562 		0.16880950044165277  0.13199825546165297 		Uiso   ? 		C 		0.65955
C 1.0  		0.2217635644062914 		0.666650309156934  0.13238421527294433 		Uiso   ? 		C 		0.65945
C 1.0  		0.7277253078875507 		0.16733732456570816  0.1331561348955271 		Uiso   ? 		C 		0.65955
C 1.0  		0.724000521379851 		0.6668956718029247  0.13431401432940127 		Uiso   ? 		C 		0.65944
C 1.0  		0.22244774981051324 		0.16611051133575427  0.27853433048194803 		Uiso   ? 		C 		0.65942
C 1.0  		0.22572866251279966 		0.6703307488467957  0.2763472248846302 		Uiso   ? 		C 		0.65957
C 1.0  		0.731403379508017 		0.16831877514967125  0.2766045314254911 		Uiso   ? 		C 		-0.13061
C 1.0  		0.7230519526542365 		0.6654234959269801  0.2773764510480739 		Uiso   ? 		C 		-0.13070
C 1.0  		0.11198951157351837 		0.24438119540681127  0.19156471967095642 		Uiso   ? 		C 		-0.12965
C 1.0  		0.11570188109735235 		0.743939542644028  0.1941377850795656 		Uiso   ? 		C 		0.54392
C 1.0  		0.6129251346445572 		0.2394739424869958  0.19092145331880409 		Uiso   ? 		C 		0.54392
C 1.0  		0.6068300868958005 		0.7385415644322308  0.19079280004837365 		Uiso   ? 		C 		-0.13077
C 1.0  		0.1167365105325209 		0.24070075571694965  0.3401592470181388 		Uiso   ? 		C 		0.54391
C 1.0  		0.11358345585094554 		0.7392776523702032  0.3360423423643641 		Uiso   ? 		C 		0.54391
C 1.0  		0.6142241474011186 		0.23824712925704192  0.3402879002885693 		Uiso   ? 		C 		0.54392
C 1.0  		0.6133297929705267 		0.7451663558739818  0.34105981991115203 		Uiso   ? 		C 		0.54392
C 1.0  		0.22355834411732947 		0.16365688487584654  0.19336586545698284 		Uiso   ? 		C 		0.60440
C 1.0  		0.2268239827198795 		0.6708214741387771  0.19465239816128746 		Uiso   ? 		C 		-0.13600
C 1.0  		0.7252652362330451 		0.16709196191971737  0.19568162432473113 		Uiso   ? 		C 		0.60440
C 1.0  		0.7223246717237992 		0.665668858572971  0.19581027759516162 		Uiso   ? 		C 		-0.12965
C 1.0  		0.2189492990169442 		0.16463833545980963  0.3381007946912515 		Uiso   ? 		C 		0.60440
C 1.0  		0.22286768223621917 		0.6688585729708509  0.33475580966005947 		Uiso   ? 		C 		0.60440
C 1.0  		0.7260165888860666 		0.16561978604377273  0.3384867545025428 		Uiso   ? 		C 		0.60440
C 1.0  		0.7213279595530159 		0.666650309156934  0.3395159806659865 		Uiso   ? 		C 		0.60440
C 1.0  		0.3653192856495417 		0.9873392874668762  0.194523744890857 		Uiso   ? 		C 		-0.24399
C 1.0  		0.3668775034656658 		0.48557267641574253  0.19297990564569148 		Uiso   ? 		C 		-0.24399
C 1.0  		0.8647522034145373 		0.98537638629895  0.19735411684032714 		Uiso   ? 		C 		-0.24399
C 1.0  		0.8687311470628465 		0.4880263028756503  0.1954243177838702 		Uiso   ? 		C 		0.11818
C 1.0  		0.36332354016201573 		0.9829227598390422  0.3352704227417813 		Uiso   ? 		C 		-0.13600
C 1.0  		0.3675413668511981 		0.4907252919815488  0.33874406104340377 		Uiso   ? 		C 		0.11819
C 1.0  		0.865494758444711 		0.9821866719010699  0.3352704227417813 		Uiso   ? 		C 		-0.12965
C 1.0  		0.8686172649268136 		0.4894984787515949  0.3388727143138342 		Uiso   ? 		C 		0.11818
C 1.0  		0.2909843276996451 		0.09961723427225441  0.19169337294138686 		Uiso   ? 		C 		0.11878
C 1.0  		0.29544157339961213 		0.6023652959073511  0.19375182526827422 		Uiso   ? 		C 		0.11878
C 1.0  		0.788938611881182 		0.09937187162626364  0.19503835797257885 		Uiso   ? 		C 		0.11878
C 1.0  		0.7922917397512212 		0.5999116694474433  0.19529566451343977 		Uiso   ? 		C 		-0.08216
C 1.0  		0.2923338050473346 		0.10231622337815291  0.3374575283390992 		Uiso   ? 		C 		-0.13600
C 1.0  		0.29418422761133073 		0.6058003729512219  0.3382294479616819 		Uiso   ? 		C 		-0.08216
C 1.0  		0.7942596638122682 		0.10108941014819904  0.3392586741251256 		Uiso   ? 		C 		-0.08216
C 1.0  		0.7917769489931136 		0.6001570320934342  0.3381007946912515 		Uiso   ? 		C 		0.11983
C 1.0  		0.3655887168898876 		0.9866031995289037  0.12942519005304376 		Uiso   ? 		C 		-0.03222
C 1.0  		0.3674580329146379 		0.48630876435371484  0.12981114986433512 		Uiso   ? 		C 		0.11983
C 1.0  		0.8679395559994803 		0.98537638629895  0.13367074797724895 		Uiso   ? 		C 		0.11983
C 1.0  		0.8716731401300278 		0.4875355775836687  0.13251286854337482 		Uiso   ? 		C 		0.11921
C 1.0  		0.36776408320431087 		0.9905290018647561  0.27364550620559047 		Uiso   ? 		C 		0.11921
C 1.0  		0.3711296280582158 		0.4919521052115026  0.2766045314254911 		Uiso   ? 		C 		0.11921
C 1.0  		0.8667632230017996 		0.9868485621748946  0.2741601192873123 		Uiso   ? 		C 		-0.24357
C 1.0  		0.8637035980946907 		0.48434586318578865  0.275189345450756 		Uiso   ? 		C 		-0.24357
C 1.0  		0.24519379148554385 		0.9561782314260477  0.25602000815661735 		Uiso   ? 		C 		-0.24357
C 1.0  		0.23710014113339056 		0.4546569830209049  0.26168075205555763 		Uiso   ? 		C 		-0.13600
C 1.0  		0.7507954007249844 		0.9495534399842969  0.2552480885340346 		Uiso   ? 		C 		-0.08298
C 1.0  		0.7409448879261784 		0.44876827951712633  0.2591076866469484 		Uiso   ? 		C 		-0.08299
C 1.0  		0.3567106172213026 		0.2608204926881932  0.2103480971538037 		Uiso   ? 		C 		-0.08298
C 1.0  		0.3526747325049769 		0.7589066640494652  0.20867560463820772 		Uiso   ? 		C 		-0.03222
C 1.0  		0.8531029338828204 		0.25787614093630384  0.2135644289145652 		Uiso   ? 		C 		-0.12965
C 1.0  		0.8559259968950157 		0.7616056531553637  0.20919021771992954 		Uiso   ? 		C 		-0.12965
C 1.0  		0.25064399965239936 		0.9534792423201492  0.10523837521211707 		Uiso   ? 		C 		-0.13077
C 1.0  		0.24563029622604451 		0.44876827951712633  0.10884066678416998 		Uiso   ? 		C 		-0.13077
C 1.0  		0.7423615325226676 		0.95053489056826  0.11450141068311027 		Uiso   ? 		C 		-0.13444
C 1.0  		0.7439132738619033 		0.4534301697909511  0.1137294910605275 		Uiso   ? 		C 		-0.03222
C 1.0  		0.2412467265767994 		0.013740308175483365  0.0263739204382445 		Uiso   ? 		C 		-0.03223
C 1.0  		0.2390334429979909 		0.5120718421827462  0.021742402702747906 		Uiso   ? 		C 		-0.02997
C 1.0  		0.7409361226283642 		0.020365099617234275  0.025216041004370353 		Uiso   ? 		C 		-0.02998
C 1.0  		0.7452026287326265 		0.515506919226617  0.023028935407052514 		Uiso   ? 		C 		-0.02997
C 1.0  		0.4328406468502824 		0.01742074786534498  0.024701427922648508 		Uiso   ? 		C 		-0.13444
C 1.0  		0.42716825830022553 		0.51010894101482  0.027917759683410034 		Uiso   ? 		C 		-0.13444
C 1.0  		0.9306963229955227 		0.01570320934340956  0.03216331760761525 		Uiso   ? 		C 		-0.13600
C 1.0  		0.935725300521614 		0.5174698203945431  0.026888533519966343 		Uiso   ? 		C 		-0.13600
C 1.0  		0.3771943549254776 		0.224016095789577  0.0626541426996345 		Uiso   ? 		C 		-0.03230
C 1.0  		0.36701800578822047 		0.714496025125135  0.0639406754039391 		Uiso   ? 		C 		-0.03230
C 1.0  		0.8667693908267549 		0.21763666699381687  0.06599912773082649 		Uiso   ? 		C 		-0.03035
C 1.0  		0.8753232120149588 		0.7260280694867014  0.06304010251092587 		Uiso   ? 		C 		-0.03035
C 1.0  		0.43351488240062064 		0.20831288644616744  0.021613749432317447 		Uiso   ? 		C 		-0.13444
C 1.0  		0.4333913100537158 		0.6997742663656885  0.014923779369933474 		Uiso   ? 		C 		0.65551
C 1.0  		0.9368601125350372 		0.19972519383649034  0.009648995282284573 		Uiso   ? 		C 		0.65552
C 1.0  		0.9387040586221447 		0.707871233683384  0.020584523268873757 		Uiso   ? 		C 		-0.02997
C 1.0  		0.14015845927494874 		0.12562567474727648  0.014280513017781169 		Uiso   ? 		C 		0.65728
C 1.0  		0.13443792727972323 		0.6207674943566591  0.02071317653930422 		Uiso   ? 		C 		0.65729
C 1.0  		0.6410700106234033 		0.12194523505741486  0.025859307356522657 		Uiso   ? 		C 		-0.02998
C 1.0  		0.6433190206635149 		0.6202767690646777  0.025730654086092198 		Uiso   ? 		C 		-0.03230
C 1.0  		0.13408762923279913 		0.30940229659436647  0.031520051255462936 		Uiso   ? 		C 		-0.12965
C 1.0  		0.13338584858288155 		0.8065070173716754  0.03512234282751585 		Uiso   ? 		C 		-0.02997
C 1.0  		0.6383356057936211 		0.3111198351163019  0.024186814840926663 		Uiso   ? 		C 		-0.03222
C 1.0  		0.6358112240061865 		0.8079791932476201  0.028046412953840492 		Uiso   ? 		C 		-0.03222
C 1.0  		0.3216859032003011 		0.3152910000981451  0.019040684023708225 		Uiso   ? 		C 		0.57023
C 1.0  		0.3184647886819019 		0.8065070173716754  0.014151859747350708 		Uiso   ? 		C 		0.57022
C 1.0  		0.8302887677208988 		0.3138188242222004  0.020069910187151912 		Uiso   ? 		C 		0.57023
C 1.0  		0.8275694910068303 		0.8141132593973894  0.02097048308016514 		Uiso   ? 		C 		0.65552
C 1.0  		0.18643231313462733 		0.19310040239473944  0.09327362106208421 		Uiso   ? 		C 		-0.13077
C 1.0  		0.17750267797783392 		0.6958484640298361  0.09340227433251466 		Uiso   ? 		C 		0.65552
C 1.0  		0.6766406642219639 		0.19776229266856415  0.09314496779165375 		Uiso   ? 		C 		0.65552
C 1.0  		0.6870781829466306 		0.6946216507998823  0.09288766125079283 		Uiso   ? 		C 		-0.03230
C 1.0  		0.06910400840030434 		0.2576307782903131  0.0573793586119856 		Uiso   ? 		C 		0.65552
C 1.0  		0.06748005189331574 		0.7584159387574837  0.05982377075016436 		Uiso   ? 		C 		0.57021
C 1.0  		0.5683836982069465 		0.2613112179801747  0.056607438989402833 		Uiso   ? 		C 		0.57024
C 1.0  		0.5645339107944065 		0.7542447737756404  0.05429168012165453 		Uiso   ? 		C 		0.57024
C 1.0  		0.26488895686739167 		0.27946805378349204  0.09353092760294512 		Uiso   ? 		C 		-0.03035
C 1.0  		0.2622243000753804 		0.7726469722249485  0.09301631452122329 		Uiso   ? 		C 		-0.03035
C 1.0  		0.7645825082498855 		0.2750515261556581  0.09417419395509743 		Uiso   ? 		C 		-0.13077
C 1.0  		0.7683300682651111 		0.7814800274806164  0.09481746030724975 		Uiso   ? 		C 		-0.03035
C 1.0  		0.07528969450046631 		0.11998233388948867  0.11089911911105736 		Uiso   ? 		C 		-0.03035
C 1.0  		0.07305881567596192 		0.6148787908528806  0.11617390319870627 		Uiso   ? 		C 		-0.03230
C 1.0  		0.5766502979161642 		0.11507508096967319  0.11218565181536197 		Uiso   ? 		C 		-0.13444
C 1.0  		0.5754865122452262 		0.6227303955245853  0.10935527986589183 		Uiso   ? 		C 		-0.03230
C 1.0  		0.18227145983849505 		0.25787614093630384  0.09353092760294512 		Uiso   ? 		C 		0.57047
C 1.0  		0.1977522885920436 		0.7792717636666995  0.09378823414380605 		Uiso   ? 		C 		0.57046
C 1.0  		0.6963690076011773 		0.2860928452252429  0.09301631452122329 		Uiso   ? 		C 		0.57047
C 1.0  		0.6874782313057151 		0.7608695652173914  0.09288766125079283 		Uiso   ? 		C 		0.65729
C 1.0  		0.33371843709947524 		0.07459024438119541  0.09108651546476637 		Uiso   ? 		C 		0.65728
C 1.0  		0.3234763492713537 		0.5640887231327903  0.09160112854648822 		Uiso   ? 		C 		0.65729
C 1.0  		0.8209931057814889 		0.05766022180783198  0.09520342011854112 		Uiso   ? 		C 		-0.13077
C 1.0  		0.823373593203329 		0.5579546569830209  0.09340227433251466 		Uiso   ? 		C 		0.65729
C 1.0  		0.4003737522570928 		0.1386298949847875  0.09057190238304452 		Uiso   ? 		C 		-0.13444
C 1.0  		0.3961582467138698 		0.6372067916380411  0.0903145958421836 		Uiso   ? 		C 		0.57045
C 1.0  		0.906137387077735 		0.12807930120718422  0.0913438220056273 		Uiso   ? 		C 		0.57048
C 1.0  		0.897251740035181 		0.639415055451958  0.09365958087337559 		Uiso   ? 		C 		0.57047
C 1.0  		0.38420080073946494 		0.05103543036608107  0.09160112854648822 		Uiso   ? 		C 		0.65367
C 1.0  		0.4050637778230452 		0.5623711846108549  0.0913438220056273 		Uiso   ? 		C 		0.54468
C 1.0  		0.8941619402306 		0.05397978211797037  0.09443150049595836 		Uiso   ? 		C 		0.54544
C 1.0  		0.889138140966339 		0.5547649425851409  0.09481746030724975 		Uiso   ? 		C 		0.54775
C 1.0  		0.19701265532780804 		0.9252625380312102  0.08658365099970025 		Uiso   ? 		C 		0.54712
C 1.0  		0.19277437627705904 		0.4178525861222888  0.0913438220056273 		Uiso   ? 		C 		-0.13819
C 1.0  		0.6898648542274768 		0.9186377465894594  0.09610399301155435 		Uiso   ? 		C 		0.54273
C 1.0  		0.6940562880481155 		0.4212876631661596  0.09391688741423651 		Uiso   ? 		C 		0.54364
C 1.0  		0.03965378917203094 		0.06698400235548141  0.09288766125079283 		Uiso   ? 		C 		-0.13442
C 1.0  		0.03984363617971154 		0.5662969869467073  0.09533207338897158 		Uiso   ? 		C 		0.12425
C 1.0  		0.540403314939284 		0.06722936500147218  0.09160112854648822 		Uiso   ? 		C 		0.12399
C 1.0  		0.5456864496059848 		0.5712042398665227  0.0903145958421836 		Uiso   ? 		C 		0.12427
C 1.0  		0.3899993591092859 		0.2645009323780548  0.0867123042701307 		Uiso   ? 		C 		-0.07384
C 1.0  		0.3847783437724317 		0.7623417410933361  0.0850398117545347 		Uiso   ? 		C 		-0.13482
C 1.0  		0.8867925843928786 		0.2627833938561194  0.08735557062228301 		Uiso   ? 		C 		-0.13502
C 1.0  		0.8812933401928305 		0.7596427519874375  0.0886421033265876 		Uiso   ? 		C 		-0.07406
C 1.0  		0.22195501828096384 		0.923299636863284  0.0995776313131768 		Uiso   ? 		C 		-0.07390
C 1.0  		0.21866530795582947 		0.41736186083030724  0.10317992288522972 		Uiso   ? 		C 		0.12125
C 1.0  		0.7143100216682206 		0.9203552851113946  0.10999854621804414 		Uiso   ? 		C 		0.12145
C 1.0  		0.7159187040754729 		0.4225144763961135  0.10871201351373952 		Uiso   ? 		C 		0.12162
C 1.0  		0.20035195329719188 		0.10746883894395919  0.06535586137867418 		Uiso   ? 		C 		-0.02699
C 1.0  		0.20069734940918557 		0.6075179114731574  0.06870084640986616 		Uiso   ? 		C 		-0.08033
C 1.0  		0.7023852177212699 		0.10943174011188538  0.06921545949158801 		Uiso   ? 		C 		-0.08037
C 1.0  		0.701503816244455 		0.6070271861811759  0.07268909779321045 		Uiso   ? 		C 		-0.08014
C 1.0  		0.04322726324030194 		0.09495534399842968  0.10472376213039523 		Uiso   ? 		C 		-0.13470
C 1.0  		0.04239400520865555 		0.5900971636078124  0.11012719948847459 		Uiso   ? 		C 		-0.13470
C 1.0  		0.5455781023498946 		0.09372853076847582  0.10459510885996477 		Uiso   ? 		C 		-0.02735
C 1.0  		0.5453846359811962 		0.5952497791736187  0.10343722942609063 		Uiso   ? 		C 		-0.02770
C 1.0  		0.34258301551933823 		0.24658945922072822  0.10819740043201768 		Uiso   ? 		C 		-0.02746
C 1.0  		0.3455944969812787 		0.751545784669742  0.11025585275890505 		Uiso   ? 		C 		-0.13825
C 1.0  		0.843742247531514 		0.24977917361860832  0.11154238546320967 		Uiso   ? 		C 		-0.13813
C 1.0  		0.8299424466958474 		0.7321621356364708  0.10871201351373952 		Uiso   ? 		C 		-0.13835
C 1.0  		0.36879152188362324 		0.24290901953086663  0.10176473691049463 		Uiso   ? 		C 		-0.02782
C 1.0  		0.3653361666162697 		0.741731278830111  0.10086416401748141 		Uiso   ? 		C 		-0.02819
C 1.0  		0.8683559170303478 		0.24290901953086663  0.1042091490486734 		Uiso   ? 		C 		0.65149
C 1.0  		0.8574106199943733 		0.7314260476984984  0.10112147055834234 		Uiso   ? 		C 		0.65184
C 1.0  		0.20186473879999567 		0.9183923839434684  0.06767162024642248 		Uiso   ? 		C 		0.65479
C 1.0  		0.19976895671823772 		0.41441750907841796  0.07217448471148862 		Uiso   ? 		C 		0.65505
C 1.0  		0.704772035635976 		0.9191284718814409  0.07796388188085936 		Uiso   ? 		C 		-0.13858
C 1.0  		0.7106129262441232 		0.4178525861222888  0.07732061552870705 		Uiso   ? 		C 		-0.02771
C 1.0  		0.03692013094625013 		0.0785160467170478  0.07474755012009783 		Uiso   ? 		C 		-0.02669
C 1.0  		0.038926102614559366 		0.5827362842280892  0.07744926879913751 		Uiso   ? 		C 		-0.13456
C 1.0  		0.5371877353008276 		0.0794974973010109  0.07346101741579321 		Uiso   ? 		C 		0.65158
C 1.0  		0.5388738111376628 		0.5805280204141722  0.07268909779321045 		Uiso   ? 		C 		-0.02778
C 1.0  		0.372855228026428 		0.24806163509667287  0.06870084640986616 		Uiso   ? 		C 		0.65194
C 1.0  		0.3654347746525663 		0.7432034547060556  0.06870084640986616 		Uiso   ? 		C 		0.57010
C 1.0  		0.8655454013448952 		0.2453626459907744  0.0712739118184754 		Uiso   ? 		C 		0.56676
C 1.0  		0.8689161244606303 		0.749337520855825  0.07088795200718401 		Uiso   ? 		C 		0.56336
C 1.0  		0.24856858859825273 		0.9098046913337915  0.04811632314099241 		Uiso   ? 		C 		0.56392
C 1.0  		0.24391644797165193 		0.4104917067425656  0.049016896034005636 		Uiso   ? 		C 		0.57325
C 1.0  		0.7464770504805804 		0.9183923839434684  0.05107534836089301 		Uiso   ? 		C 		0.56885
C 1.0  		0.748484320363948 		0.41539895966238105  0.05017477546787978 		Uiso   ? 		C 		0.65227
C 1.0  		0.3761159646940476 		0.943910099126509  0.06419798194480003 		Uiso   ? 		C 		-0.02852
C 1.0  		0.3794157708570881 		0.4443517518892924  0.0573793586119856 		Uiso   ? 		C 		0.65122
C 1.0  		0.8764909747077694 		0.9480812641083521  0.0672856604351311 		Uiso   ? 		C 		-0.02833
C 1.0  		0.8853243229742257 		0.450240455393071  0.06278279597006496 		Uiso   ? 		C 		-0.02720
C 1.0  		0.03695165306770229 		0.12022769653547945  0.04811632314099241 		Uiso   ? 		C 		0.65408
C 1.0  		0.04105845473672254 		0.6256747472764747  0.05107534836089301 		Uiso   ? 		C 		0.65560
C 1.0  		0.5366563232190034 		0.12390813622534107  0.04850228295228379 		Uiso   ? 		C 		0.56822
C 1.0  		0.5336652941186296 		0.6185592305427422  0.04618652408453549 		Uiso   ? 		C 		0.57141
C 1.0  		0.32465185433107757 		0.2009520070664442  0.04708709697754872 		Uiso   ? 		C 		-0.13850
C 1.0  		0.3229380874106404 		0.7019825301796055  0.04335615213506535 		Uiso   ? 		C 		0.57175
C 1.0  		0.8242097730009136 		0.20561389734026891  0.04399941848721766 		Uiso   ? 		C 		0.56527
C 1.0  		0.8219876917992572 		0.7022278928255963  0.04811632314099241 		Uiso   ? 		C 		0.57007
C 1.0  		0.36389613225113027 		0.916920208067524  0.10137877709920326 		Uiso   ? 		C 		0.57134
C 1.0  		0.36845560534841154 		0.4203062125821965  0.10047820420619002 		Uiso   ? 		C 		0.65514
C 1.0  		0.8690838799147191 		0.9183923839434684  0.1051097219416866 		Uiso   ? 		C 		-0.13514
C 1.0  		0.8571084653926178 		0.417607223476298  0.09867705842016357 		Uiso   ? 		C 		0.65942
C 1.0  		0.2671612920260862 		0.9542153302581216  0.12080542093420285 		Uiso   ? 		C 		0.65956
C 1.0  		0.26343132725655644 		0.4512219059770341  0.12363579288367299 		Uiso   ? 		C 		0.54322
C 1.0  		0.7636522167239006 		0.9527431543821769  0.12775269753744775 		Uiso   ? 		C 		0.54324
C 1.0  		0.7622531673731072 		0.45441162037491417  0.1278813508078782 		Uiso   ? 		C 		-0.12901
C 1.0  		0.04792024289722606 		0.23481205221317109  0.09880571169059403 		Uiso   ? 		C 		0.54323
C 1.0  		0.04386908408116402 		0.7358425753263325  0.1012501238287728 		Uiso   ? 		C 		0.54324
C 1.0  		0.5450268875354042 		0.24094611836294044  0.09944897804274634 		Uiso   ? 		C 		0.54322
C 1.0  		0.5458583603910026 		0.7292177838845815  0.09610399301155435 		Uiso   ? 		C 		0.54323
C 1.0  		0.23649287783890774 		0.11090391598783003  0.09932032477231588 		Uiso   ? 		C 		0.54322
C 1.0  		0.2146337245544556 		0.5903425262538032  0.10665356118685215 		Uiso   ? 		C 		0.54323
C 1.0  		0.7313209058344472 		0.09888114633428208  0.10292261634436879 		Uiso   ? 		C 		0.54322
C 1.0  		0.7276049169495955 		0.6001570320934342  0.10703952099814353 		Uiso   ? 		C 		0.54323
C 1.0  		0.37174067338162703 		0.913485131023653  0.07050199219589262 		Uiso   ? 		C 		0.54322
C 1.0  		0.3759080354796815 		0.41736186083030724  0.0672856604351311 		Uiso   ? 		C 		0.54323
C 1.0  		0.8727860232577698 		0.9181470212974777  0.07346101741579321 		Uiso   ? 		C 		0.60502
C 1.0  		0.8815865021787936 		0.419815487290215  0.06780027351685294 		Uiso   ? 		C 		0.60536
C 1.0  		0.042360794886256395 		0.25174207478653454  0.06767162024642248 		Uiso   ? 		C 		0.60502
C 1.0  		0.04022204762116005 		0.7527725978996959  0.06947276603244894 		Uiso   ? 		C 		0.60528
C 1.0  		0.5411826350028072 		0.25493178918441456  0.06638508754211787 		Uiso   ? 		C 		0.60501
C 1.0  		0.5373833121813953 		0.7517911473157327  0.06368336886307818 		Uiso   ? 		C 		0.60530
C 1.0  		0.20514013226348482 		0.08219648640690942  0.07217448471148862 		Uiso   ? 		C 		0.60501
C 1.0  		0.2076192277216217 		0.583963097458043  0.07551946974268059 		Uiso   ? 		C 		-0.13523
C 1.0  		0.7070090499604019 		0.08170576111492787  0.07320371087493228 		Uiso   ? 		C 		0.60541
C 1.0  		0.7068637270368722 		0.580773383060163  0.07796388188085936 		Uiso   ? 		C 		-0.13061
C 1.0  		0.38650110330866116 		0.9149573068995978  0.0883847967857267 		Uiso   ? 		C 		0.60501
C 1.0  		0.39181425020492344 		0.4232505643340858  0.08581173137711748 		Uiso   ? 		C 		0.60537
C 1.0  		0.8897852370441321 		0.9181470212974777  0.0903145958421836 		Uiso   ? 		C 		0.60502
C 1.0  		0.8838975012058748 		0.4146628717244087  0.0877415304335744 		Uiso   ? 		C 		0.60536
C 1.0  		0.05018590658608768 		0.2622926685641378  0.08684095754056116 		Uiso   ? 		C 		-0.13390
C 1.0  		0.04269323804447306 		0.7611149278633821  0.08928536967873991 		Uiso   ? 		C 		-0.24297
C 1.0  		0.5460088125674407 		0.26670919619197175  0.08581173137711748 		Uiso   ? 		C 		-0.24540
C 1.0  		0.5442422599099161 		0.7574344881735205  0.08401058559109102 		Uiso   ? 		C 		-0.24297
C 1.0  		0.20656182477892715 		0.08121503582294633  0.09198708835777959 		Uiso   ? 		C 		-0.24537
C 1.0  		0.19296803763870174 		0.5682598881146335  0.09224439489864052 		Uiso   ? 		C 		-0.24297
C 1.0  		0.7022486110866327 		0.07090980469133379  0.0926303547099319 		Uiso   ? 		C 		-0.24541
C 1.0  		0.7007714060611092 		0.5707135145745412  0.09687591263413711 		Uiso   ? 		C 		0.11549
C 1.0  		0.22509429207080542 		0.07238198056727844  0.06278279597006496 		Uiso   ? 		C 		0.11549
C 1.0  		0.22961727646163682 		0.5761114927863382  0.06689970062383971 		Uiso   ? 		C 		0.11549
C 1.0  		0.7271034847722992 		0.0755716949651585  0.06278279597006496 		Uiso   ? 		C 		0.11542
C 1.0  		0.7307019721601001 		0.5766022180783198  0.0696014193028794 		Uiso   ? 		C 		-0.13523
C 1.0  		0.32281099267781876 		0.9142212189616253  0.05004612219744932 		Uiso   ? 		C 		0.12004
C 1.0  		0.31933518504889863 		0.41343605849445486  0.05377706703993269 		Uiso   ? 		C 		0.11543
C 1.0  		0.8247063032432795 		0.9188831092354501  0.05107534836089301 		Uiso   ? 		C 		0.12007
C 1.0  		0.8256029788198307 		0.41834331141427034  0.05995242402059482 		Uiso   ? 		C 		-0.13060
C 1.0  		0.03743088003241776 		0.2019334576504073  0.04682979043668779 		Uiso   ? 		C 		0.11543
C 1.0  		0.035487027693955175 		0.6995289037196978  0.051847267983475775 		Uiso   ? 		C 		0.12008
C 1.0  		0.5377730207007075 		0.20561389734026891  0.04541460446195272 		Uiso   ? 		C 		-0.08709
C 1.0  		0.5324422785587494 		0.6938855628619099  0.05403437358079361 		Uiso   ? 		C 		-0.08943
C 1.0  		0.24964783909267307 		0.12488958680930416  0.04785901660013148 		Uiso   ? 		C 		-0.13390
C 1.0  		0.24737761444584805 		0.6239572087545393  0.04811632314099241 		Uiso   ? 		C 		-0.08709
C 1.0  		0.7493853785894062 		0.12906075179114734  0.04875958949314471 		Uiso   ? 		C 		-0.08943
C 1.0  		0.7494437482153582 		0.626410835214447  0.05249053433562808 		Uiso   ? 		C 		-0.08709
C 1.0  		0.360415941973303 		0.2019334576504073  0.12415040596539484 		Uiso   ? 		C 		-0.08943
C 1.0  		0.35723001794629544 		0.7000196290116794  0.1229925265315207 		Uiso   ? 		C 		-0.08930
C 1.0  		0.8567272458442201 		0.2009520070664442  0.1262088582922822 		Uiso   ? 		C 		-0.08573
C 1.0  		0.85932022343839 		0.7012464422416332  0.1265948181035736 		Uiso   ? 		C 		-0.08930
C 1.0  		0.2147478663335002 		0.38742761801943276  0.10948393313632229 		Uiso   ? 		C 		-0.08572
C 1.0  		0.21496410620972456 		0.8918932181764648  0.10755413407986537 		Uiso   ? 		C 		-0.08930
C 1.0  		0.7093527723488926 		0.3911080577092944  0.11591659665784534 		Uiso   ? 		C 		-0.08570
C 1.0  		0.7113652204940903 		0.890666404946511  0.11553063684655396 		Uiso   ? 		C 		0.11818
C 1.0  		0.5168590597399758 		0.09323780547649427  0.10986989294761368 		Uiso   ? 		C 		-0.12902
C 1.0  		0.5142689392616768 		0.5891157130238492  0.11038450602933551 		Uiso   ? 		C 		-0.13070
C 1.0  		0.013371233455023307 		0.09176562960054963  0.11167103873364013 		Uiso   ? 		C 		0.11818
C 1.0  		0.012702322150538015 		0.5893610756698401  0.11565929011698442 		Uiso   ? 		C 		0.11818
C 1.0  		0.19369374402718095 		0.3839925409755619  0.06574182118996556 		Uiso   ? 		C 		0.11809
C 1.0  		0.1980852510362836 		0.8857591520266955  0.06587047446039603 		Uiso   ? 		C 		-0.13523
C 1.0  		0.702257262725458 		0.38669153008146046  0.07011603238460123 		Uiso   ? 		C 		0.12080
C 1.0  		0.699481044943373 		0.8877220531946217  0.07088795200718401 		Uiso   ? 		C 		-0.03262
C 1.0  		0.5069877379614905 		0.07434488173520463  0.06767162024642248 		Uiso   ? 		C 		0.11809
C 1.0  		0.5064831733841663 		0.5743939542644029  0.0685721931394357 		Uiso   ? 		C 		0.12086
C 1.0  		0.005951185708195875 		0.07140052998331534  0.06767162024642248 		Uiso   ? 		C 		0.11810
C 1.0  		0.009339504069626747 		0.5788104818922367  0.0712739118184754 		Uiso   ? 		C 		0.12087
C 1.0  		0.36863946284019333 		0.9480812641083521  0.10742548080943491 		Uiso   ? 		C 		-0.24315
C 1.0  		0.3683926747644963 		0.4495043674550987  0.10601029483469984 		Uiso   ? 		C 		-0.13393
C 1.0  		0.8725763411923892 		0.9483266267543431  0.11102777238148782 		Uiso   ? 		C 		-0.24404
C 1.0  		0.8680797496701016 		0.44974973010108943  0.10652490791642169 		Uiso   ? 		C 		-0.24315
C 1.0  		0.23365949167082836 		0.38742761801943276  0.12402175269496438 		Uiso   ? 		C 		-0.24407
C 1.0  		0.2338998032696369 		0.890666404946511  0.12157734055678562 		Uiso   ? 		C 		-0.24315
C 1.0  		0.7321790312016009 		0.39086269506330357  0.1276240442670173 		Uiso   ? 		C 		-0.24411
C 1.0  		0.7335211394843779 		0.8899303170085386  0.12646616483314313 		Uiso   ? 		C 		-0.08678
C 1.0  		0.5151725782761063 		0.10771420158994996  0.12543693866969946 		Uiso   ? 		C 		-0.08730
C 1.0  		0.5131236414244587 		0.6084993620571205  0.1242790592358253 		Uiso   ? 		C 		-0.08678
C 1.0  		0.013132837375139768 		0.11041319069584847  0.12543693866969946 		Uiso   ? 		C 		-0.08730
C 1.0  		0.012685213865831768 		0.6097261752870743  0.12878192370089142 		Uiso   ? 		C 		-0.08678
C 1.0  		0.21616723770298313 		0.3800667386397095  0.05635013244854191 		Uiso   ? 		C 		-0.08730
C 1.0  		0.22155545688286896 		0.88085189910688  0.05763666515284652 		Uiso   ? 		C 		-0.08723
C 1.0  		0.720971671990193 		0.38374717832957117  0.05763666515284652 		Uiso   ? 		C 		-0.13523
C 1.0  		0.7202634148633869 		0.8855137893807048  0.05789397169370744 		Uiso   ? 		C 		-0.08611
C 1.0  		0.5050429440260823 		0.09765433310432821  0.05647878571897237 		Uiso   ? 		C 		-0.08723
C 1.0  		0.5025185622386477 		0.5945136912356463  0.056092825907680985 		Uiso   ? 		C 		-0.08607
C 1.0  		0.004030463495371887 		0.09348316812248504  0.05622147917811145 		Uiso   ? 		C 		-0.08723
C 1.0  		0.007933572614910511 		0.6006477573854156  0.05943781093887297 		Uiso   ? 		C 		-0.08605
C 1.0  		0.2528387953974881 		0.9434193738345276  0.052619187606058535 		Uiso   ? 		C 		-0.13061
C 1.0  		0.24964121663176192 		0.4436156639513201  0.05442033339208499 		Uiso   ? 		C 		-0.13391
C 1.0  		0.7531087208980249 		0.9507802532142507  0.059566464209303435 		Uiso   ? 		C 		-0.13061
C 1.0  		0.7551159907813925 		0.44778682893316324  0.058151278234568365 		Uiso   ? 		C 		-0.03262
C 1.0  		0.34577328987021927 		0.38939051918735895  0.10755413407986537 		Uiso   ? 		C 		-0.13070
C 1.0  		0.33596730115556417 		0.8869859652566494  0.1078114406207263 		Uiso   ? 		C 		-0.12903
C 1.0  		0.8317952550558703 		0.38865443124938664  0.10716817426857399 		Uiso   ? 		C 		-0.13070
C 1.0  		0.8452252314388462 		0.8889488664245756  0.11218565181536197 		Uiso   ? 		C 		-0.12901
C 1.0  		0.5146227106855961 		0.2137108646579645  0.105495681752978 		Uiso   ? 		C 		-0.03261
C 1.0  		0.51601943889043 		0.7056629698694671  0.10472376213039523 		Uiso   ? 		C 		-0.03262
C 1.0  		0.016528151499482474 		0.21027578761409366  0.10536702848254753 		Uiso   ? 		C 		-0.03254
C 1.0  		0.01420978340748874 		0.7117970360192365  0.10819740043201768 		Uiso   ? 		C 		-0.13514
C 1.0  		0.34860787727825604 		0.38571007949749736  0.06368336886307818 		Uiso   ? 		C 		-0.03209
C 1.0  		0.34648440411289616 		0.8837962508587693  0.06496990156738279 		Uiso   ? 		C 		-0.03254
C 1.0  		0.8557256317385064 		0.39061733241731283  0.059566464209303435 		Uiso   ? 		C 		-0.03210
C 1.0  		0.8472274534032606 		0.8887035037785848  0.06638508754211787 		Uiso   ? 		C 		-0.13514
C 1.0  		0.5094465760510054 		0.22843262341741097  0.06213952961791265 		Uiso   ? 		C 		-0.13515
C 1.0  		0.5052222728849344 		0.7252919815487291  0.05750801188241606 		Uiso   ? 		C 		-0.13523
C 1.0  		0.010477984452989364 		0.226224359603494  0.0632974090517868 		Uiso   ? 		C 		-0.03254
C 1.0  		0.008919766636865223 		0.7279909706546276  0.06406932867436957 		Uiso   ? 		C 		-0.13392
C 1.0  		0.32928006921911673 		0.38742761801943276  0.1229925265315207 		Uiso   ? 		C 		-0.13523
C 1.0  		0.323307701229241 		0.8867406026106586  0.12453636577668623 		Uiso   ? 		C 		-0.13391
C 1.0  		0.8242354192654558 		0.38840906860339586  0.12466501904711669 		Uiso   ? 		C 		-0.03221
C 1.0  		0.826696919477897 		0.8867406026106586  0.1276240442670173 		Uiso   ? 		C 		-0.12900
C 1.0  		0.5127690743876164 		0.1955540288546472  0.12054811439334194 		Uiso   ? 		C 		-0.03209
C 1.0  		0.5152634439454897 		0.6943762881538915  0.12157734055678562 		Uiso   ? 		C 		-0.03222
C 1.0  		0.014192593788827368 		0.19285503974874868  0.12119138074549424 		Uiso   ? 		C 		-0.03214
C 1.0  		0.013304715835123992 		0.6951123760918638  0.12415040596539484 		Uiso   ? 		C 		-0.03237
C 1.0  		0.3185722266660801 		0.3830110903915988  0.059180504398012056 		Uiso   ? 		C 		-0.03214
C 1.0  		0.32027357660265177 		0.8810972617528708  0.05480629320337638 		Uiso   ? 		C 		0.65790
C 1.0  		0.8255015626765851 		0.38669153008146046  0.0609816501840385 		Uiso   ? 		C 		-0.03239
C 1.0  		0.8225697957901873 		0.8869859652566494  0.055063599744237295 		Uiso   ? 		C 		0.65790
C 1.0  		0.5062828082276569 		0.20340563352635196  0.05081804182003209 		Uiso   ? 		C 		0.65813
C 1.0  		0.5014844520895024 		0.694867013445873  0.05442033339208499 		Uiso   ? 		C 		0.65790
C 1.0  		0.007158667525327969 		0.20046128177446265  0.052619187606058535 		Uiso   ? 		C 		0.65813
C 1.0  		0.005256482155145514 		0.7002649916576701  0.05519225301466776 		Uiso   ? 		C 		0.65811
C 1.0  		0.2633388547201813 		0.10722347629796841  0.105495681752978 		Uiso   ? 		C 		0.65779
C 1.0  		0.24410411981739588 		0.5893610756698401  0.11038450602933551 		Uiso   ? 		C 		-0.13514
C 1.0  		0.7592950722682329 		0.09618215722838357  0.10961258640675275 		Uiso   ? 		C 		0.65811
C 1.0  		0.7578442601112532 		0.6011384826773973  0.11089911911105736 		Uiso   ? 		C 		0.65779
C 1.0  		0.21134057317735983 		0.3444891549710472  0.054677639932945915 		Uiso   ? 		C 		0.65942
C 1.0  		0.21182392314797083 		0.8418392383943469  0.05557821282595914 		Uiso   ? 		C 		0.65957
C 1.0  		0.7107670144654671 		0.34718814407694576  0.05300514741734992 		Uiso   ? 		C 		0.65942
C 1.0  		0.7143085607852515 		0.8489547551280794  0.05300514741734992 		Uiso   ? 		C 		0.65957
C 1.0  		0.46836083585771504 		0.08931200314064187  0.051332654901753934 		Uiso   ? 		C 		0.65955
C 1.0  		0.46559109455251874 		0.5856806359799784  0.05171861471304531 		Uiso   ? 		C 		0.65944
C 1.0  		0.9679252310044395 		0.08931200314064187  0.0533911072286413 		Uiso   ? 		C 		0.65955
C 1.0  		0.9723014639138058 		0.5940229659436648  0.05480629320337638 		Uiso   ? 		C 		0.65945
C 1.0  		0.35183300114356164 		0.1975169300225734  0.05429168012165453 		Uiso   ? 		C 		-0.03254
C 1.0  		0.3476985083909394 		0.6941309255079008  0.051332654901753934 		Uiso   ? 		C 		-0.03212
C 1.0  		0.8499757037748437 		0.1984983806065365  0.05158996144261486 		Uiso   ? 		C 		-0.03254
C 1.0  		0.8519071391294408 		0.7000196290116794  0.05390572031036315 		Uiso   ? 		C 		-0.03211
C 1.0  		0.2893091923225609 		0.3474335067229365  0.05596417263725052 		Uiso   ? 		C 		-0.03254
C 1.0  		0.29056149019188915 		0.8467464913141625  0.051847267983475775 		Uiso   ? 		C 		-0.03206
C 1.0  		0.7954455087117643 		0.35037785847482583  0.05583551936682007 		Uiso   ? 		C 		-0.13061
C 1.0  		0.7927591013431281 		0.8511630189419963  0.05223322779476716 		Uiso   ? 		C 		-0.03261
C 1.0  		0.47257507551091343 		0.1712631269015605  0.05068938854960163 		Uiso   ? 		C 		-0.03221
C 1.0  		0.46539118403196544 		0.6651781332809893  0.05236188106519762 		Uiso   ? 		C 		-0.03262
C 1.0  		0.969915960898046 		0.16979095102561587  0.049016896034005636 		Uiso   ? 		C 		0.65790
C 1.0  		0.9688308668717495 		0.6691039356168417  0.05300514741734992 		Uiso   ? 		C 		0.65813
C 1.0  		0.06894138219912412 		0.12513494945529494  0.055063599744237295 		Uiso   ? 		C 		0.65790
C 1.0  		0.07183018390218365 		0.6298459122583179  0.05789397169370744 		Uiso   ? 		C 		0.65813
C 1.0  		0.5681224639694696 		0.1273432132692119  0.05442033339208499 		Uiso   ? 		C 		0.65811
C 1.0  		0.5670197746974772 		0.623221120816567  0.051332654901753934 		Uiso   ? 		C 		0.65778
C 1.0  		0.07821188483498134 		0.2222985572676416  0.12041946112291148 		Uiso   ? 		C 		0.65811
C 1.0  		0.07647404619195985 		0.7245558936107567  0.1229925265315207 		Uiso   ? 		C 		0.65779
C 1.0  		0.5774193594738706 		0.22965943664736485  0.12222060690893792 		Uiso   ? 		C 		0.65811
C 1.0  		0.5799442772312166 		0.7225929924428305  0.11964754150032872 		Uiso   ? 		C 		0.65779
C 1.0  		0.3750101909882064 		0.2183727549317892  0.10896932005460044 		Uiso   ? 		C 		-0.13070
C 1.0  		0.37256034551448414 		0.7179311021690059  0.10806874716158722 		Uiso   ? 		C 		0.65811
C 1.0  		0.8739042462725101 		0.21788202963980766  0.11179969200407058 		Uiso   ? 		C 		0.65777
C 1.0  		0.8680522368955559 		0.7110609480812642  0.10935527986589183 		Uiso   ? 		C 		0.65790
C 1.0  		0.32392738150758943 		0.23137697516930023  0.04927420257486655 		Uiso   ? 		C 		0.65813
C 1.0  		0.31736568644589375 		0.7282363333006183  0.05107534836089301 		Uiso   ? 		C 		-0.03221
C 1.0  		0.8237876007632036 		0.23579350279713418  0.0497888156565884 		Uiso   ? 		C 		0.65813
C 1.0  		0.8194975589062683 		0.7316714103444892  0.053648413769502225 		Uiso   ? 		C 		-0.03214
C 1.0  		0.07742155966163977 		0.13912062027676905  0.1259515517514213 		Uiso   ? 		C 		-0.03237
C 1.0  		0.0756749233957704 		0.6396604180979488  0.12801000407830868 		Uiso   ? 		C 		-0.03214
C 1.0  		0.5795599085989029 		0.13789380704681523  0.12608020502185174 		Uiso   ? 		C 		-0.03238
C 1.0  		0.5761221485772451 		0.6401511433899304  0.12453636577668623 		Uiso   ? 		C 		-0.03214
C 1.0  		0.32766239419607224 		0.231622337815291  0.12415040596539484 		Uiso   ? 		C 		-0.03240
C 1.0  		0.3282378757260913 		0.73510648738836  0.12492232558797761 		Uiso   ? 		C 		-0.03214
C 1.0  		0.8267207962075369 		0.2335852389832172  0.12646616483314313 		Uiso   ? 		C 		-0.03236
C 1.0  		0.82471120517821 		0.7301992344685445  0.12633751156271267 		Uiso   ? 		C 		-0.13070
C 1.0  		0.28276569312653965 		0.9841495730689961  0.991016142125841 		Uiso   ? 		C 		-0.03222
C 1.0  		0.2845035317695611 		0.4818922367258809  0.9885717299876622 		Uiso   ? 		C 		-0.03221
C 1.0  		0.780343140408586 		0.9814505839630976  0.9932032477231587 		Uiso   ? 		C 		-0.12901
C 1.0  		0.7893255613024668 		0.4890077534596134  0.992431328100576 		Uiso   ? 		C 		0.65942
C 1.0  		0.45884044507116634 		0.09152026695455885  0.9901155692328276 		Uiso   ? 		C 		0.65957
C 1.0  		0.46278705534395476 		0.5834723721660615  0.9930745944527284 		Uiso   ? 		C 		-0.13514
C 1.0  		0.957427557477773 		0.0785160467170478  0.9937178608048807 		Uiso   ? 		C 		0.65941
C 1.0  		0.9588136538747893 		0.5861713612719599  0.992174021559715 		Uiso   ? 		C 		0.65956
C 1.0  		0.35973815171201434 		0.15850426931004025  0.9885717299876622 		Uiso   ? 		C 		0.65955
C 1.0  		0.36304961261377355 		0.6568358033173031  0.9867705842016357 		Uiso   ? 		C 		0.65945
C 1.0  		0.8634185517776413 		0.1501619393463539  0.9849694384156092 		Uiso   ? 		C 		0.65955
C 1.0  		0.8646097532480239 		0.6612523309451369  0.9896009561511059 		Uiso   ? 		C 		0.65944
C 1.0  		0.2838346204650758 		0.9794876827951713  0.051332654901753934 		Uiso   ? 		C 		0.65955
C 1.0  		0.2778987411816499 		0.47845715968201  0.05004612219744932 		Uiso   ? 		C 		0.65945
C 1.0  		0.781946774896885 		0.9863578368829129  0.05480629320337638 		Uiso   ? 		C 		0.65955
C 1.0  		0.78413366560715 		0.482873687309844  0.05300514741734992 		Uiso   ? 		C 		0.65944
C 1.0  		0.22470028223654154 		0.9436647364805183  0.05686474553026375 		Uiso   ? 		C 		0.65942
C 1.0  		0.22313688615858715 		0.44287957601334776  0.06291144924049542 		Uiso   ? 		C 		0.65957
C 1.0  		0.7297260043189289 		0.9490627146923153  0.07178852490019723 		Uiso   ? 		C 		-0.13061
C 1.0  		0.7313740325485018 		0.44705074099519093  0.06818623332814432 		Uiso   ? 		C 		-0.13070
C 1.0  		0.35742067620804474 		0.16831877514967125  0.05107534836089301 		Uiso   ? 		C 		-0.12965
C 1.0  		0.3542588239036214 		0.6651781332809893  0.04670113716625733 		Uiso   ? 		C 		0.54392
C 1.0  		0.8601002087719591 		0.17199921483953284  0.046443830625396414 		Uiso   ? 		C 		0.54392
C 1.0  		0.8578540558477183 		0.6698400235548141  0.05223322779476716 		Uiso   ? 		C 		-0.13077
C 1.0  		0.10501057853407678 		0.1560506428501325  0.05056073527917117 		Uiso   ? 		C 		0.54391
C 1.0  		0.10643602075341393 		0.6595347924232016  0.05493494647380684 		Uiso   ? 		C 		0.54391
C 1.0  		0.6047481180308101 		0.16022180783197568  0.052619187606058535 		Uiso   ? 		C 		0.54392
C 1.0  		0.6016760761398354 		0.6568358033173031  0.05017477546787978 		Uiso   ? 		C 		0.54392
C 1.0  		0.24358471909240295 		0.1501619393463539  0.12286387326109023 		Uiso   ? 		C 		0.60440
C 1.0  		0.22841369033242218 		0.6374521542840318  0.12646616483314313 		Uiso   ? 		C 		-0.13600
C 1.0  		0.7390678128506268 		0.14157424673667682  0.12608020502185174 		Uiso   ? 		C 		0.60440
C 1.0  		0.7357439349650021 		0.6423594072038473  0.12775269753744775 		Uiso   ? 		C 		-0.12965
C 1.0  		0.2922357976310167 		0.23726567867307882  0.047987669870561946 		Uiso   ? 		C 		0.60440
C 1.0  		0.2870388540167468 		0.7338796741584062  0.04785901660013148 		Uiso   ? 		C 		0.60440
C 1.0  		0.7928714412622366 		0.23898321719501425  0.049917468927018864 		Uiso   ? 		C 		0.60440
C 1.0  		0.7912386871324002 		0.7380508391402494  0.05197592125390624 		Uiso   ? 		C 		0.60440
C 1.0  		0.10915993975940108 		0.17199921483953284  0.9894723028806753 		Uiso   ? 		C 		-0.24399
C 1.0  		0.09827158379144305 		0.6597801550691923  0.9962909262134898 		Uiso   ? 		C 		-0.24399
C 1.0  		0.6089257063096478 		0.1639022475218373  0.992174021559715 		Uiso   ? 		C 		-0.24399
C 1.0  		0.6148856573156579 		0.6637059574050447  0.9906301823145496 		Uiso   ? 		C 		0.11818
C 1.0  		0.20339742401056649 		0.3464520561389734  0.9975774589177944 		Uiso   ? 		C 		-0.13600
C 1.0  		0.20288174066443473 		0.838404161350476  0.9960336196726289 		Uiso   ? 		C 		0.11819
C 1.0  		0.7129970007019474 		0.3439984296790657  0.9933319009935893 		Uiso   ? 		C 		-0.12965
C 1.0  		0.7097277427383797 		0.8376680734125038  0.9912734486667019 		Uiso   ? 		C 		0.11818
C 1.0  		0.2812150226843842 		0.24879772303464523  0.9876711570946489 		Uiso   ? 		C 		0.11878
C 1.0  		0.2732181951924795 		0.7321621356364708  0.9885717299876622 		Uiso   ? 		C 		0.11878
C 1.0  		0.7875439128542621 		0.24192756894690354  0.9914021019371324 		Uiso   ? 		C 		0.11878
C 1.0  		0.7914534984506891 		0.7444302679360094  0.9925599813710064 		Uiso   ? 		C 		-0.08216
C 1.0  		0.06926554702051621 		0.2299047992933556  0.05351976049907176 		Uiso   ? 		C 		-0.13600
C 1.0  		0.06690551196024247 		0.7292177838845815  0.056736092259833296 		Uiso   ? 		C 		-0.08216
C 1.0  		0.5693623281710442 		0.23309451369123566  0.052747840876489 		Uiso   ? 		C 		-0.08216
C 1.0  		0.5660273315166121 		0.7257827068407107  0.05403437358079361 		Uiso   ? 		C 		0.11983
C 1.0  		0.22278658811166305 		0.13151437825105508  0.05377706703993269 		Uiso   ? 		C 		-0.03222
C 1.0  		0.22105522594553006 		0.6291098243203456  0.05596417263725052 		Uiso   ? 		C 		0.11983
C 1.0  		0.7223269115358033 		0.13274119148100896  0.05622147917811145 		Uiso   ? 		C 		0.11983
C 1.0  		0.7210774707823457 		0.629600549612327  0.0596951174797339 		Uiso   ? 		C 		0.11921
C 1.0  		0.06769882354958943 		0.10182549808617136  0.06689970062383971 		Uiso   ? 		C 		0.11921
C 1.0  		0.06986034432221166 		0.6067818235351851  0.07037333892546216 		Uiso   ? 		C 		0.11921
C 1.0  		0.5661678984892341 		0.10133477279418981  0.0643266352152305 		Uiso   ? 		C 		-0.24357
C 1.0  		0.5664956993555319 		0.5979487682795172  0.06175356980662127 		Uiso   ? 		C 		-0.24357
C 1.0  		0.34868066074095394 		0.9451369123564629  0.0580226249641379 		Uiso   ? 		C 		-0.24357
C 1.0  		0.3506485848020008 		0.44631465305721857  0.05532090628509822 		Uiso   ? 		C 		-0.13600
C 1.0  		0.8503634811340851 		0.9497988026302876  0.05995242402059482 		Uiso   ? 		C 		-0.08298
C 1.0  		0.8574969080219051 		0.45195799391500646  0.06252548942920404 		Uiso   ? 		C 		-0.08299
C 1.0  		0.25244907019428797 		0.09691824516635589  0.056092825907680985 		Uiso   ? 		C 		-0.08298
C 1.0  		0.2531296362374921 		0.5972126803415448  0.05532090628509822 		Uiso   ? 		C 		-0.03222
C 1.0  		0.7523662305179186 		0.1005986848562175  0.05390572031036315 		Uiso   ? 		C 		-0.12965
C 1.0  		0.7551629006615701 		0.599175581509471  0.05840858477542929 		Uiso   ? 		C 		-0.12965
C 1.0  		0.3549021379524862 		0.9507802532142507  0.1229925265315207 		Uiso   ? 		C 		-0.13077
C 1.0  		0.35552938228869146 		0.4509765433310433  0.121963300368077 		Uiso   ? 		C 		-0.13077
C 1.0  		0.8578904475790674 		0.9495534399842969  0.12633751156271267 		Uiso   ? 		C 		-0.13444
C 1.0  		0.8578649472985478 		0.4526940818529787  0.12350713961324254 		Uiso   ? 		C 		-0.03222
C 1.0  		0.07636985426679876 		0.23603886544312494  0.1048524154008257 		Uiso   ? 		C 		-0.03223
C 1.0  		0.07345568262609664 		0.7397683776621848  0.10703952099814353 		Uiso   ? 		C 		-0.02997
C 1.0  		0.5745084015671518 		0.24806163509667287  0.10806874716158722 		Uiso   ? 		C 		-0.02998
C 1.0  		0.5779554951815689 		0.737314751202277  0.10382318923738201 		Uiso   ? 		C 		-0.02997
C 1.0  		0.27489897910849553 		0.11801943272156247  0.1226065667202293 		Uiso   ? 		C 		-0.13444
C 1.0  		0.26398655141795324 		0.6070271861811759  0.12505097885840807 		Uiso   ? 		C 		-0.13444
C 1.0  		0.773129171007267 		0.11237609186377467  0.12517963212883854 		Uiso   ? 		C 		-0.13600
C 1.0  		0.7723880445350286 		0.6136519776229267  0.12685212464443452 		Uiso   ? 		C 		-0.13600
C 1.0  		0.278286096229969 		0.3525861222887428  0.9953903533204767 		Uiso   ? 		C 		-0.03230
C 1.0  		0.2712859809088476 		0.8349690843066052  0.9887003832580926 		Uiso   ? 		C 		-0.03230
C 1.0  		0.7847376661587278 		0.3459613308469919  0.9912734486667019 		Uiso   ? 		C 		-0.03035
C 1.0  		0.7810281537507646 		0.8425753263323192  0.990501529044119 		Uiso   ? 		C 		-0.03035
C 1.0  		0.10415792339679857 		0.2384924919030327  0.9950043935091852 		Uiso   ? 		C 		-0.13444
C 1.0  		0.10129837167815353 		0.73510648738836  0.9979634187290858 		Uiso   ? 		C 		0.65551
C 1.0  		0.6140445265742213 		0.23873785454902346  0.9923026748301456 		Uiso   ? 		C 		0.65552
C 1.0  		0.6024793542669541 		0.7306899597605262  0.9934605542640197 		Uiso   ? 		C 		-0.02997
C 1.0  		0.2173942949348034 		0.18107763274119149  0.9853553982269007 		Uiso   ? 		C 		0.65728
C 1.0  		0.20464167086104826 		0.6664049465109433  0.9907588355849799 		Uiso   ? 		C 		0.65729
C 1.0  		0.7157031784782162 		0.16709196191971737  0.9916594084779933 		Uiso   ? 		C 		-0.02998
C 1.0  		0.7177309007231503 		0.6637059574050447  0.9952617000500461 		Uiso   ? 		C 		-0.03230
C 1.0  		0.10083677228416749 		0.23015016193934637  0.05647878571897237 		Uiso   ? 		C 		-0.12965
C 1.0  		0.09990722736218394 		0.7301992344685445  0.05789397169370744 		Uiso   ? 		C 		-0.02997
C 1.0  		0.6045306122645611 		0.23628422808911573  0.05249053433562808 		Uiso   ? 		C 		-0.03222
C 1.0  		0.6011715438875447 		0.7301992344685445  0.05544955955552868 		Uiso   ? 		C 		-0.03222
C 1.0  		0.2141583119437022 		0.15973108253999413  0.048373629681853325 		Uiso   ? 		C 		0.57023
C 1.0  		0.21142143998393798 		0.6565904406713123  0.049917468927018864 		Uiso   ? 		C 		0.57022
C 1.0  		0.7155869751962238 		0.16218470899990187  0.05287649414691946 		Uiso   ? 		C 		0.57023
C 1.0  		0.7118117240973962 		0.6578172539012661  0.05416302685122407 		Uiso   ? 		C 		0.65552
C 1.0  		0.3550845668863326 		0.9804691333791344  0.05493494647380684 		Uiso   ? 		C 		-0.13077
C 1.0  		0.3562594713260778 		0.4809107861419178  0.051847267983475775 		Uiso   ? 		C 		0.65552
C 1.0  		0.8547651653150494 		0.98537638629895  0.05725070534155514 		Uiso   ? 		C 		0.65552
C 1.0  		0.8615217553033788 		0.48508195112376096  0.05827993150499883 		Uiso   ? 		C 		-0.03230
C 1.0  		0.34921419897579314 		0.25517715183040535  0.06020973056145574 		Uiso   ? 		C 		0.65552
C 1.0  		0.33782864749542324 		0.7466385317499264  0.06458394175609142 		Uiso   ? 		C 		0.57021
C 1.0  		0.848149921228377 		0.25689469035234075  0.061367609995329885 		Uiso   ? 		C 		0.57024
C 1.0  		0.8446945659610234 		0.7557169496515851  0.0643266352152305 		Uiso   ? 		C 		0.57024
C 1.0  		0.2822611118653271 		0.09152026695455885  0.05493494647380684 		Uiso   ? 		C 		-0.03035
C 1.0  		0.28342359932120675 		0.5910786141917754  0.05197592125390624 		Uiso   ? 		C 		-0.03035
C 1.0  		0.7850239783658018 		0.09961723427225441  0.05236188106519762 		Uiso   ? 		C 		-0.13077
C 1.0  		0.785759164331063 		0.5927961527137109  0.05429168012165453 		Uiso   ? 		C 		-0.03035
C 1.0  		0.2334462872195311 		0.13838453233879675  0.10575298829383892 		Uiso   ? 		C 		-0.03035
C 1.0  		0.20777758493288379 		0.6148787908528806  0.11398679760138843 		Uiso   ? 		C 		-0.03230
C 1.0  		0.7252249164887449 		0.1236627735793503  0.11012719948847459 		Uiso   ? 		C 		-0.13444
C 1.0  		0.7195877184300796 		0.623221120816567  0.11385814433095796 		Uiso   ? 		C 		-0.03230
C 1.0  		0.46137419277639397 		0.15948571989400334  0.988829036528523 		Uiso   ? 		C 		0.57047
C 1.0  		0.4611848817386247 		0.6499656492295613  0.9915307552075627 		Uiso   ? 		C 		0.57046
C 1.0  		0.9640972264935582 		0.14795367553243696  0.990501529044119 		Uiso   ? 		C 		0.57047
C 1.0  		0.96373525806677 		0.6580626165472568  0.9951330467796157 		Uiso   ? 		C 		0.65729
C 1.0  		0.35801360699973683 		0.9893021886348023  0.9919167150188541 		Uiso   ? 		C 		0.65728
C 1.0  		0.3563997463306545 		0.48459122583177944  0.9911447953962713 		Uiso   ? 		C 		0.65729
C 1.0  		0.8521472234102714 		0.9780155069192268  0.9973201523769335 		Uiso   ? 		C 		-0.13077
C 1.0  		0.8578524813057604 		0.48581803906173326  0.9953903533204767 		Uiso   ? 		C 		0.65729
C 1.0  		0.28399390258939555 		0.0920109922465404  0.9920453682892847 		Uiso   ? 		C 		-0.13444
C 1.0  		0.28841595779797097 		0.5878888997938954  0.9896009561511059 		Uiso   ? 		C 		0.57045
C 1.0  		0.7891552573844406 		0.08833055255667878  0.9902442225032582 		Uiso   ? 		C 		0.57048
C 1.0  		0.7906288430489464 		0.5893610756698401  0.9920453682892847 		Uiso   ? 		C 		0.57047
H 1.0  		0.34641517536114863 		0.17690646775934832  0.48695262857929483 		Uiso   ? 		H 		0.03385
H 1.0  		0.34375699504602586 		0.6654234959269801  0.4874672416610167 		Uiso   ? 		H 		0.03269
H 1.0  		0.8307325768762447 		0.16341152222985575  0.4834789902776724 		Uiso   ? 		H 		0.03140
H 1.0  		0.8701502587893177 		0.6821081558543527  0.484508216441116 		Uiso   ? 		H 		0.03056
H 1.0  		0.28008634617088257 		0.224016095789577  0.4954437444277052 		Uiso   ? 		H 		0.42366
H 1.0  		0.2842084219396392 		0.7265187947786829  0.4865666687680034 		Uiso   ? 		H 		0.39213
H 1.0  		0.8124270135934419 		0.23432132692118954  0.4807772715986327 		Uiso   ? 		H 		0.11390
H 1.0  		0.8077319077835028 		0.7400137403081756  0.4911981865035 		Uiso   ? 		H 		0.11392
H 1.0  		0.22990665641867164 		0.15850426931004025  0.4914554930443609 		Uiso   ? 		H 		0.11046
H 1.0  		0.2427102810534662 		0.6668956718029247  0.48695262857929483 		Uiso   ? 		H 		0.11039
H 1.0  		0.7425709059361147 		0.15580528020414175  0.4832216837368114 		Uiso   ? 		H 		0.40804
H 1.0  		0.7350764032095303 		0.672048287368731  0.4936425986416788 		Uiso   ? 		H 		0.11394
H 1.0  		0.28115699403539934 		0.08931200314064187  0.49184145285565234 		Uiso   ? 		H 		0.11396
H 1.0  		0.284087462706739 		0.5962312297575818  0.48978300052876494 		Uiso   ? 		H 		0.11399
H 1.0  		0.7969803690842718 		0.09888114633428208  0.49377125191210924 		Uiso   ? 		H 		0.11039
H 1.0  		0.7913366945487181 		0.6031013838453235  0.49016896034005636 		Uiso   ? 		H 		0.11041
H 1.0  		0.18754754973336235 		0.20340563352635196  0.5117827097723738 		Uiso   ? 		H 		0.42286
H 1.0  		0.21713606379722003 		0.7292177838845815  0.5074084985777381 		Uiso   ? 		H 		0.11041
H 1.0  		0.701068236417012 		0.19604475414662875  0.5098529107159169 		Uiso   ? 		H 		0.11046
H 1.0  		0.6734376319102504 		0.7162135636470705  0.5113967499610824 		Uiso   ? 		H 		0.41207
H 1.0  		0.25719116721836005 		0.28192168024339975  0.5140984686401221 		Uiso   ? 		H 		0.03478
H 1.0  		0.2603628400765322 		0.800372951221906  0.505993312603003 		Uiso   ? 		H 		0.03522
H 1.0  		0.7593799807467512 		0.28462066934929825  0.5095956041750559 		Uiso   ? 		H 		0.11391
H 1.0  		0.7613354878239325 		0.7849151045244872  0.5143557751809831 		Uiso   ? 		H 		0.03248
H 1.0  		0.18715004983821532 		0.36878005692413385  0.3983105252527072 		Uiso   ? 		H 		0.03224
H 1.0  		0.18121702767066028 		0.8639218765335166  0.4012695504726078 		Uiso   ? 		H 		0.41198
H 1.0  		0.6794962556026243 		0.36411816665030916  0.3981818719822768 		Uiso   ? 		H 		0.03404
H 1.0  		0.6861024747484707 		0.865639415055452  0.39483688695108476 		Uiso   ? 		H 		0.03474
H 1.0  		0.49502022847421323 		0.06698400235548141  0.39264978135376694 		Uiso   ? 		H 		0.03508
H 1.0  		0.49404021896110173 		0.5631072725488272  0.394064967328502 		Uiso   ? 		H 		0.02990
H 1.0  		0.9909611719225284 		0.05888703503778585  0.3992110981457204 		Uiso   ? 		H 		0.03139
H 1.0  		0.9933481358212572 		0.55451957993915  0.39638072619625025 		Uiso   ? 		H 		0.03342
H 1.0  		0.34281553574231194 		0.3690254195701247  0.3918778617311841 		Uiso   ? 		H 		0.03458
H 1.0  		0.3680727466079886 		0.8730002944351752  0.39908244487528993 		Uiso   ? 		H 		0.03328
H 1.0  		0.8521785505387791 		0.3677986063401708  0.3979245654414158 		Uiso   ? 		H 		0.03210
H 1.0  		0.7705356094770065 		0.8683384041613506  0.3985678317935681 		Uiso   ? 		H 		0.03500
H 1.0  		0.48969378764720695 		0.23015016193934637  0.40152685701346874 		Uiso   ? 		H 		0.13923
H 1.0  		0.49478202738727395 		0.7375601138482677  0.41194777191833604 		Uiso   ? 		H 		0.13936
H 1.0  		0.9901210964370264 		0.22082638139169694  0.3981818719822768 		Uiso   ? 		H 		0.13934
H 1.0  		0.9935270100441531 		0.7316714103444892  0.4053864551263825 		Uiso   ? 		H 		0.13931
H 1.0  		0.16796704541658247 		0.2743154382176858  0.5103675237976387 		Uiso   ? 		H 		0.13979
H 1.0  		0.2116303754453171 		0.8040533909117676  0.501233141597076 		Uiso   ? 		H 		0.13940
H 1.0  		0.6813169088961826 		0.2691628226518795  0.5104961770680692 		Uiso   ? 		H 		0.13402
H 1.0  		0.6710729868830914 		0.7760820492688193  0.5117827097723738 		Uiso   ? 		H 		0.13359
H 1.0  		0.09490636323061714 		0.10354303660810679  0.4006262841204555 		Uiso   ? 		H 		0.13402
H 1.0  		0.10024228363440535 		0.6178231426047699  0.3941936205989324 		Uiso   ? 		H 		0.13360
H 1.0  		0.5948869410991527 		0.10182549808617136  0.4075735607237004 		Uiso   ? 		H 		0.10546
H 1.0  		0.5993358761372616 		0.6266561978604377  0.3918778617311841 		Uiso   ? 		H 		0.10668
H 1.0  		0.23707566378377193 		0.9713907154774758  0.39843917852313765 		Uiso   ? 		H 		0.10546
H 1.0  		0.2254266215700331 		0.4691333791343606  0.4114331588366142 		Uiso   ? 		H 		0.10666
H 1.0  		0.7293015109352594 		0.9728628913534204  0.3989537916048595 		Uiso   ? 		H 		0.10679
H 1.0  		0.7265113172684965 		0.46962410442634217  0.3999830177683032 		Uiso   ? 		H 		0.10709
H 1.0  		0.3560166925972872 		0.2853567572872706  0.413877570974793 		Uiso   ? 		H 		0.10679
H 1.0  		0.36199423884899307 		0.7885955442143489  0.4165792896538327 		Uiso   ? 		H 		0.10709
H 1.0  		0.8563301192510737 		0.27750515261556585  0.4242984858796603 		Uiso   ? 		H 		0.11409
H 1.0  		0.8589342156140509 		0.7858965551084504  0.40770221399413087 		Uiso   ? 		H 		0.11405
H 1.0  		0.09879385727345232 		0.27578761409363045  0.4012695504726078 		Uiso   ? 		H 		0.11410
H 1.0  		0.09809671891545346 		0.7856511924624595  0.40770221399413087 		Uiso   ? 		H 		0.11409
H 1.0  		0.5945510245639409 		0.2792226911375012  0.40525780185595206 		Uiso   ? 		H 		0.11405
H 1.0  		0.5925701475491172 		0.787368730984395  0.41529275694952805 		Uiso   ? 		H 		0.11540
H 1.0  		0.18910109293253408 		0.11556580626165473  0.39779591217098537 		Uiso   ? 		H 		0.11545
H 1.0  		0.18051078303788026 		0.6075179114731574  0.4051291485855216 		Uiso   ? 		H 		0.11404
H 1.0  		0.6820847692139316 		0.11090391598783003  0.39650937946668074 		Uiso   ? 		H 		0.11542
H 1.0  		0.6958457601971888 		0.6224850328785946  0.39663803273711123 		Uiso   ? 		H 		0.11110
H 1.0  		0.3405634579522397 		0.041957012464422426  0.5099815639863473 		Uiso   ? 		H 		0.11110
H 1.0  		0.3396339130302562 		0.5420060849936207  0.5072798453073076 		Uiso   ? 		H 		0.11105
H 1.0  		0.8425638530308855 		0.04342918834036706  0.5070225387664467 		Uiso   ? 		H 		0.11186
H 1.0  		0.8415532953183013 		0.5454411620374914  0.5080517649298903 		Uiso   ? 		H 		0.11106
H 1.0  		0.41210414823839947 		0.9767886936892728  0.4008835906613164 		Uiso   ? 		H 		0.11185
H 1.0  		0.39517572106185456 		0.4750220826381392  0.3936790075172106 		Uiso   ? 		H 		0.11410
H 1.0  		0.8268520952802093 		0.9762979683972913  0.3986964850639986 		Uiso   ? 		H 		0.11410
H 1.0  		0.9129309370923584 		0.47060555501030527  0.41207642518876647 		Uiso   ? 		H 		0.11110
H 1.0  		0.23387396201215024 		0.05594268328589656  0.39882513833442906 		Uiso   ? 		H 		0.11110
H 1.0  		0.24112877044379274 		0.565560899008735  0.39560880657366754 		Uiso   ? 		H 		0.11105
H 1.0  		0.7279858278460597 		0.052262243596034944  0.4050004953150912 		Uiso   ? 		H 		0.11185
H 1.0  		0.7372997993101332 		0.5608990087349103  0.40345665606992565 		Uiso   ? 		H 		0.11106
H 1.0  		0.41308565095951366 		0.12538031210128572  0.5080517649298903 		Uiso   ? 		H 		0.11185
H 1.0  		0.41409258931108023 		0.62420257140053  0.5084377247411818 		Uiso   ? 		H 		0.11105
H 1.0  		0.8725069987816527 		0.12881538914515656  0.5116540565019433 		Uiso   ? 		H 		0.11183
H 1.0  		0.9281831736358843 		0.6332809893021887  0.5052213929804202 		Uiso   ? 		H 		0.11105
H 1.0  		0.35973508396205367 		0.3297673962116008  0.46135062776363306 		Uiso   ? 		H 		0.11188
H 1.0  		0.3699865053829344 		0.8317793699087251  0.4443683960668122 		Uiso   ? 		H 		0.11110
H 1.0  		0.8649885703165068 		0.33222102267150855  0.4460408885824082 		Uiso   ? 		H 		0.11110
H 1.0  		0.8654895155328135 		0.833006183138679  0.4523448988335008 		Uiso   ? 		H 		0.11409
H 1.0  		0.12998274308270397 		0.3258415938757484  0.4470701147458519 		Uiso   ? 		H 		0.02802
H 1.0  		0.13760326964502967 		0.829816468740799  0.4348480540549581 		Uiso   ? 		H 		0.02805
H 1.0  		0.6328724446729886 		0.32314260476984985  0.4567191100281365 		Uiso   ? 		H 		0.02802
H 1.0  		0.6313734890708402 		0.8305525566787713  0.4497718334248916 		Uiso   ? 		H 		0.02805
H 1.0  		0.40094511078121636 		0.22646972224948478  0.403842615881217 		Uiso   ? 		H 		0.02802
H 1.0  		0.40676063145172076 		0.7336343115124154  0.40204147009519053 		Uiso   ? 		H 		0.02805
H 1.0  		0.9060847149996366 		0.23039552458533713  0.41027527940274006 		Uiso   ? 		H 		0.02802
H 1.0  		0.8966115750702324 		0.7218569045048583  0.39535150003280656 		Uiso   ? 		H 		0.02805
H 1.0  		0.13111718179412649 		0.09691824516635589  0.4509297128587657 		Uiso   ? 		H 		0.02803
H 1.0  		0.13838726432550533 		0.603592109137305  0.4497718334248916 		Uiso   ? 		H 		0.02805
H 1.0  		0.633321269422254 		0.09667288252036511  0.4393509185200242 		Uiso   ? 		H 		0.02802
H 1.0  		0.6371739139506645 		0.5999116694474433  0.4519589390222094 		Uiso   ? 		H 		0.02805
H 1.0  		0.44195155870988645 		0.2375110413190696  0.4495145268840307 		Uiso   ? 		H 		0.10546
H 1.0  		0.44513386337587635 		0.7402591029541663  0.4513156726700571 		Uiso   ? 		H 		0.10670
H 1.0  		0.9376582614092472 		0.23702031602708803  0.449900486695322 		Uiso   ? 		H 		0.11404
H 1.0  		0.9593272110679063 		0.7397683776621848  0.44565492877111684 		Uiso   ? 		H 		0.10546
H 1.0  		0.4277511412201906 		0.09053881637059574  0.5074084985777381 		Uiso   ? 		H 		0.10665
H 1.0  		0.41545636683652665 		0.5763568554323291  0.5080517649298903 		Uiso   ? 		H 		0.10546
H 1.0  		0.9188312035734703 		0.08759446461870646  0.5098529107159169 		Uiso   ? 		H 		0.10669
H 1.0  		0.9205871734320991 		0.578565119246246  0.5052213929804202 		Uiso   ? 		H 		0.11542
H 1.0  		0.46448640842764594 		0.020365099617234275  0.44385378298509043 		Uiso   ? 		H 		0.10546
H 1.0  		0.4578501770522379 		0.5145254686426539  0.44861395399101744 		Uiso   ? 		H 		0.10672
H 1.0  		0.9629642809901384 		0.021591912847188144  0.4553039240534014 		Uiso   ? 		H 		0.10679
H 1.0  		0.9538063946002895 		0.5034841495730691  0.4483566474501565 		Uiso   ? 		H 		0.10712
H 1.0  		0.2264933090965653 		0.997399155952498  0.4567191100281365 		Uiso   ? 		H 		0.10679
H 1.0  		0.22100880302634213 		0.5015212484051429  0.44668415493456054 		Uiso   ? 		H 		0.10708
H 1.0  		0.724959526920339 		0.0007360879379723231  0.45311681845608354 		Uiso   ? 		H 		0.10679
H 1.0  		0.7302931261781679 		0.5086367651388752  0.4587775623550238 		Uiso   ? 		H 		0.10710
H 1.0  		0.2967238188484346 		0.9593679458239279  0.4846368697115465 		Uiso   ? 		H 		0.10679
H 1.0  		0.3011300639873622 		0.4683972911963883  0.48412225662982467 		Uiso   ? 		H 		0.10708
H 1.0  		0.7920472081714163 		0.9610854843458633  0.48399360335939423 		Uiso   ? 		H 		0.11404
H 1.0  		0.7922517933089219 		0.467661203258416  0.48592340241585114 		Uiso   ? 		H 		0.03151
H 1.0  		0.50012560882402 		0.1273432132692119  0.48219245757336776 		Uiso   ? 		H 		0.03196
H 1.0  		0.4957017684393966 		0.6148787908528806  0.4834789902776724 		Uiso   ? 		H 		0.03151
H 1.0  		0.9986493036857218 		0.1197369712434979  0.486180708956712 		Uiso   ? 		H 		0.03198
H 1.0  		0.9958091813977423 		0.6023652959073511  0.48116323140992406 		Uiso   ? 		H 		0.03151
H 1.0  		0.09288984108844567 		0.15433310432819708  0.4875958949314471 		Uiso   ? 		H 		0.03201
H 1.0  		0.10497498241565087 		0.6646874079890078  0.48772454820187755 		Uiso   ? 		H 		0.11540
H 1.0  		0.6017709344722373 		0.15384237903621553  0.4913268397739305 		Uiso   ? 		H 		0.03151
H 1.0  		0.5961471763283386 		0.6678771223868879  0.4906835734217782 		Uiso   ? 		H 		0.03198
H 1.0  		0.21754262095822663 		0.36411816665030916  0.4834789902776724 		Uiso   ? 		H 		0.03151
H 1.0  		0.22711954718575755 		0.8766807341250369  0.4756311407814143 		Uiso   ? 		H 		0.03190
H 1.0  		0.734436757530605 		0.3516046717047797  0.49377125191210924 		Uiso   ? 		H 		0.03151
H 1.0  		0.7230933599795049 		0.8690744920993229  0.48476552298197695 		Uiso   ? 		H 		0.03195
H 1.0  		0.2948913648321348 		0.3704975954460693  0.48939704071747353 		Uiso   ? 		H 		0.13286
H 1.0  		0.29901344060089147 		0.8730002944351752  0.4800053519760499 		Uiso   ? 		H 		0.13278
H 1.0  		0.8035905162430697 		0.36411816665030916  0.48695262857929483 		Uiso   ? 		H 		0.13286
H 1.0  		0.8049942078857819 		0.8752085582490923  0.49016896034005636 		Uiso   ? 		H 		0.13279
H 1.0  		0.08737767625965422 		0.233830601629208  0.48373629681853325 		Uiso   ? 		H 		0.13286
H 1.0  		0.09724578430415609 		0.7380508391402494  0.4784615127308844 		Uiso   ? 		H 		0.13279
H 1.0  		0.5944555979365942 		0.21910884286976154  0.4875958949314471 		Uiso   ? 		H 		0.13289
H 1.0  		0.5924858396905776 		0.7353518500343508  0.486438015497573 		Uiso   ? 		H 		0.13299
H 1.0  		0.46315280579967155 		0.151143389930317  0.49184145285565234 		Uiso   ? 		H 		0.13289
H 1.0  		0.486966573573281 		0.6637059574050447  0.48708128184972527 		Uiso   ? 		H 		0.13299
H 1.0  		0.9816251579137848 		0.185984885661007  0.4892683874470431 		Uiso   ? 		H 		0.13289
H 1.0  		0.000590009025754068 		0.6781823535185003  0.47923343235346716 		Uiso   ? 		H 		0.13299
H 1.0  		0.3671002198187786 		0.98537638629895  0.4892683874470431 		Uiso   ? 		H 		0.11404
H 1.0  		0.3647502805964111 		0.4791932476199824  0.4888824276357517 		Uiso   ? 		H 		0.13362
H 1.0  		0.8655933664810076 		0.9836588477770146  0.4923560659373742 		Uiso   ? 		H 		0.13392
H 1.0  		0.8547743685649316 		0.47158700559426836  0.486180708956712 		Uiso   ? 		H 		0.13363
H 1.0  		0.31156263176817667 		0.18794778682893318  0.43510536059581906 		Uiso   ? 		H 		0.13393
H 1.0  		0.3173934265384174 		0.6921680243399746  0.4371638129227064 		Uiso   ? 		H 		0.13363
H 1.0  		0.7993632099771053 		0.1788693689272745  0.415550063490389 		Uiso   ? 		H 		0.11541
H 1.0  		0.8205132135467273 		0.6929041122779468  0.4339474811619449 		Uiso   ? 		H 		0.13393
H 1.0  		0.27469192684100785 		0.9191284718814409  0.42790077745171323 		Uiso   ? 		H 		0.13402
H 1.0  		0.27050411238138683 		0.4156443223083718  0.43433344097323623 		Uiso   ? 		H 		0.13360
H 1.0  		0.7613272908210631 		0.9196191971734224  0.4338188278915144 		Uiso   ? 		H 		0.03178
H 1.0  		0.7680926784322406 		0.42104230052016883  0.4316317222941966 		Uiso   ? 		H 		0.03179
H 1.0  		0.044592988609707146 		0.14231033467464912  0.4306024961307529 		Uiso   ? 		H 		0.03039
H 1.0  		0.04076727291975163 		0.634017077240161  0.43111710921247476 		Uiso   ? 		H 		0.03040
H 1.0  		0.5411848424897776 		0.14868976347040927  0.4295732699673092 		Uiso   ? 		H 		0.03045
H 1.0  		0.5406867543893417 		0.6440769457257828  0.4322749886463489 		Uiso   ? 		H 		0.13934
H 1.0  		0.2550017603691914 		0.12709785062322113  0.4402514914130375 		Uiso   ? 		H 		0.13933
H 1.0  		0.2683553662534853 		0.6421140445578566  0.43549132040711036 		Uiso   ? 		H 		0.10635
H 1.0  		0.75867384977296 		0.14083815879870448  0.43677785311141504 		Uiso   ? 		H 		0.10635
H 1.0  		0.769497003019965 		0.6418686819118659  0.43793573254528917 		Uiso   ? 		H 		0.41443
H 1.0  		0.32396557509887447 		0.9203552851113946  0.4312457624829052 		Uiso   ? 		H 		0.11421
H 1.0  		0.3186912380550215 		0.41809794876827955  0.4342047877028058 		Uiso   ? 		H 		0.10701
H 1.0  		0.8478107909591818 		0.9196191971734224  0.43433344097323623 		Uiso   ? 		H 		0.10701
H 1.0  		0.8146257050264482 		0.4146628717244087  0.4331755615393621 		Uiso   ? 		H 		0.11492
H 1.0  		0.04017101473508707 		0.1857395230150162  0.4321463353759184 		Uiso   ? 		H 		0.11491
H 1.0  		0.04671797166695785 		0.6816174305623712  0.41876639525115045 		Uiso   ? 		H 		0.11422
H 1.0  		0.5344824177875491 		0.19138286387280404  0.4372924661931369 		Uiso   ? 		H 		0.41439
H 1.0  		0.5448629954441992 		0.6889783099420944  0.42519905877267355 		Uiso   ? 		H 		0.11421
H 1.0  		0.31947041213452215 		0.9198645598194132  0.18217303092953274 		Uiso   ? 		H 		0.11165
H 1.0  		0.32379979981377816 		0.419815487290215  0.1799859253322149 		Uiso   ? 		H 		0.11165
H 1.0  		0.8194926569713379 		0.9203552851113946  0.18448878979728103 		Uiso   ? 		H 		0.11069
H 1.0  		0.8211254111011743 		0.4212876631661596  0.18294495055211552 		Uiso   ? 		H 		0.11069
H 1.0  		0.3139609417536907 		0.916920208067524  0.3233056685917484 		Uiso   ? 		H 		0.11491
H 1.0  		0.3139530367188669 		0.4234959269800766  0.3326973573331721 		Uiso   ? 		H 		0.11491
H 1.0  		0.8452433136455316 		0.9161841201295515  0.326264693811649 		Uiso   ? 		H 		0.41436
H 1.0  		0.8196227057951312 		0.42423201491804896  0.32948102557241055 		Uiso   ? 		H 		0.11165
H 1.0  		0.04491434532415019 		0.21690057905584456  0.1753544075967183 		Uiso   ? 		H 		0.11165
H 1.0  		0.046317550005872676 		0.7041907939935225  0.17792747300532755 		Uiso   ? 		H 		0.11069
H 1.0  		0.5484197668547985 		0.22180783197566006  0.17625498048973157 		Uiso   ? 		H 		0.11069
H 1.0  		0.5451652960299774 		0.6887329472961037  0.17574036740800972 		Uiso   ? 		H 		0.11069
H 1.0  		0.049358556736384826 		0.1896653253508686  0.3292237190315497 		Uiso   ? 		H 		0.11491
H 1.0  		0.044807881261951454 		0.6879968593581314  0.3261360405412186 		Uiso   ? 		H 		0.11069
H 1.0  		0.5461165915285859 		0.18107763274119149  0.33051025173585424 		Uiso   ? 		H 		0.41427
H 1.0  		0.545158819553089 		0.6933948375699285  0.3297383321132715 		Uiso   ? 		H 		0.11165
H 1.0  		0.18904999539639375 		0.4019040141328884  0.23016070080009468 		Uiso   ? 		H 		0.11165
H 1.0  		0.17645756271887048 		0.9007262734321327  0.23350568583128667 		Uiso   ? 		H 		0.03205
H 1.0  		0.6725614243364111 		0.396996761213073  0.23749393721463097 		Uiso   ? 		H 		0.03205
H 1.0  		0.6769682054452502 		0.8958190205123172  0.23929508300065744 		Uiso   ? 		H 		0.03204
H 1.0  		0.17987589330986273 		0.41245460791049177  0.37862657487684664 		Uiso   ? 		H 		0.41436
H 1.0  		0.17037636051191485 		0.8987633722642066  0.37669677582038974 		Uiso   ? 		H 		0.03204
H 1.0  		0.6662348626116938 		0.3945431347531652  0.37695408236125066 		Uiso   ? 		H 		0.03204
H 1.0  		0.6636294680336583 		0.8933653940524096  0.377340042172542 		Uiso   ? 		H 		0.11421
H 1.0  		0.5157386938883324 		0.04637354009225636  0.2363360577807568 		Uiso   ? 		H 		0.03037
H 1.0  		0.516298901318615 		0.5528020414172147  0.23569279142860453 		Uiso   ? 		H 		0.03204
H 1.0  		0.022106428321138953 		0.042938463048385514  0.23762259048506143 		Uiso   ? 		H 		0.10635
H 1.0  		0.021948152443832136 		0.5513298655412701  0.23003204752966425 		Uiso   ? 		H 		0.10635
H 1.0  		0.529957940188715 		0.042938463048385514  0.37991310758115127 		Uiso   ? 		H 		0.03185
H 1.0  		0.5268465524754198 		0.543723623515556  0.377597348713403 		Uiso   ? 		H 		0.10635
H 1.0  		0.024616964566772623 		0.04710962803022868  0.37669677582038974 		Uiso   ? 		H 		0.03177
H 1.0  		0.024513308611522927 		0.5483855137893807  0.372579871166615 		Uiso   ? 		H 		0.03177
H 1.0  		0.3956955274138818 		0.3987142997350084  0.2347922185355913 		Uiso   ? 		H 		0.03185
H 1.0  		0.39324568194015935 		0.898272646972225  0.2344062587242999 		Uiso   ? 		H 		0.11491
H 1.0  		0.8924952291743629 		0.39233487093924824  0.2373652839442005 		Uiso   ? 		H 		0.10635
H 1.0  		0.8939118737708522 		0.8941014819903819  0.2354354848877436 		Uiso   ? 		H 		0.10701
H 1.0  		0.40380534445379546 		0.40558445382275005  0.3805563739333036 		Uiso   ? 		H 		0.10701
H 1.0  		0.37726077557027604 		0.9007262734321327  0.37193660481446267 		Uiso   ? 		H 		0.11421
H 1.0  		0.9019744399536211 		0.4117185199725194  0.3782406150655553 		Uiso   ? 		H 		0.10701
H 1.0  		0.7816064757127663 		0.9495534399842969  0.38248617298976045 		Uiso   ? 		H 		0.10701
H 1.0  		0.5146092707708293 		0.19923446854450882  0.23942373627108787 		Uiso   ? 		H 		0.03130
H 1.0  		0.5306604841265221 		0.7608695652173914  0.23363433910171716 		Uiso   ? 		H 		0.03130
H 1.0  		0.08201166229234924 		0.17592501717538522  0.23427760545386944 		Uiso   ? 		H 		0.03130
H 1.0  		0.028772136998939435 		0.7753459613308471  0.23453491199473037 		Uiso   ? 		H 		0.03130
H 1.0  		0.5245144358167261 		0.2662184708999902  0.38004176085158176 		Uiso   ? 		H 		0.03130
H 1.0  		0.5278962777012686 		0.7782903130827364  0.3814569468263168 		Uiso   ? 		H 		0.03130
H 1.0  		0.025009302883977527 		0.271861811757778  0.37875522814727713 		Uiso   ? 		H 		0.03037
H 1.0  		0.03062528633592937 		0.7697026204730593  0.3757962029273765 		Uiso   ? 		H 		0.11421
H 1.0  		0.24837283340862865 		0.9782608695652175  0.25023061098724664 		Uiso   ? 		H 		0.13863
H 1.0  		0.23718164088498098 		0.47649425851408383  0.25769250067221333 		Uiso   ? 		H 		0.03044
H 1.0  		0.7572604032693087 		0.9731082539994113  0.2495873446350943 		Uiso   ? 		H 		0.13864
H 1.0  		0.7440253218129664 		0.4693787417803514  0.2528036763958558 		Uiso   ? 		H 		0.13863
H 1.0  		0.3573157053538486 		0.28412994405731673  0.2103480971538037 		Uiso   ? 		H 		0.41426
H 1.0  		0.35359091884614907 		0.7836882912945333  0.21073405696509506 		Uiso   ? 		H 		0.13933
H 1.0  		0.8497998649768748 		0.2767690646775935  0.21948247935436643 		Uiso   ? 		H 		0.03385
H 1.0  		0.8539154642687429 		0.7839336539405242  0.21279250929198246 		Uiso   ? 		H 		0.03269
H 1.0  		0.18683247515270074 		0.371969771322014  0.2584644202947961 		Uiso   ? 		H 		0.03140
H 1.0  		0.18654919837055378 		0.8737363823731475  0.2555053950748955 		Uiso   ? 		H 		0.03056
H 1.0  		0.6963158485620893 		0.36460889194229074  0.25177445023241213 		Uiso   ? 		H 		0.42366
H 1.0  		0.7132859427069143 		0.8685837668073413  0.24649966614476324 		Uiso   ? 		H 		0.39213
H 1.0  		0.48947556760199024 		0.05716949651585043  0.26193805859641855 		Uiso   ? 		H 		0.11390
H 1.0  		0.4895931994419179 		0.5601629207969379  0.2645111240050278 		Uiso   ? 		H 		0.11392
H 1.0  		0.9911889361945943 		0.05594268328589656  0.26193805859641855 		Uiso   ? 		H 		0.11046
H 1.0  		0.9909278969500619 		0.5739032289724213  0.24418390727701492 		Uiso   ? 		H 		0.11039
H 1.0  		0.22145077799671828 		0.3685346942781431  0.2278449419323464 		Uiso   ? 		H 		0.40804
H 1.0  		0.2029021440170796 		0.8720188438512121  0.22128362514039288 		Uiso   ? 		H 		0.11394
H 1.0  		0.6926882415327509 		0.36755324369418  0.2206403587882406 		Uiso   ? 		H 		0.11396
H 1.0  		0.6861770110621832 		0.8683384041613506  0.21742402702747904 		Uiso   ? 		H 		0.11399
H 1.0  		0.20316134907664235 		0.3714790460300324  0.3676910468902575 		Uiso   ? 		H 		0.11039
H 1.0  		0.19543859511700234 		0.8668662282854058  0.36486067494078733 		Uiso   ? 		H 		0.11041
H 1.0  		0.7005832472543757 		0.3680439689861616  0.3701354590284362 		Uiso   ? 		H 		0.42286
H 1.0  		0.6843696840244025 		0.8651486897634705  0.36138703663916494 		Uiso   ? 		H 		0.11041
H 1.0  		0.3296914959900201 		0.2603297673962116  0.3712933384623104 		Uiso   ? 		H 		0.11046
H 1.0  		0.30748421982058055 		0.7488467955638435  0.37360909733005865 		Uiso   ? 		H 		0.41207
H 1.0  		0.8391466423458953 		0.2652370203160271  0.3712933384623104 		Uiso   ? 		H 		0.03478
H 1.0  		0.8394767643581524 		0.7682304445971145  0.3687202730537012 		Uiso   ? 		H 		0.03522
H 1.0  		0.49103570093703947 		0.07728923348709393  0.2232134241968498 		Uiso   ? 		H 		0.11391
H 1.0  		0.4902376333967848 		0.5793012071842184  0.22372803727857166 		Uiso   ? 		H 		0.03248
H 1.0  		0.9874321729294866 		0.06330356266561979  0.22372803727857166 		Uiso   ? 		H 		0.03224
H 1.0  		0.0026226655306522684 		0.5594268328589656  0.19143606640052593 		Uiso   ? 		H 		0.41198
H 1.0  		0.49464986805161115 		0.05986848562174895  0.3615156899095954 		Uiso   ? 		H 		0.03404
H 1.0  		0.4921782720012639 		0.5670330748846796  0.3639601020477741 		Uiso   ? 		H 		0.03474
H 1.0  		0.993892533181892 		0.07409951908921386  0.3639601020477741 		Uiso   ? 		H 		0.03508
H 1.0  		0.9939948909220833 		0.5800372951221906  0.364474715129496 		Uiso   ? 		H 		0.02990
H 1.0  		0.34937865936194307 		0.3702522328000785  0.2552480885340346 		Uiso   ? 		H 		0.03139
H 1.0  		0.3518072902289519 		0.8680930415153597  0.2558913548861869 		Uiso   ? 		H 		0.03342
H 1.0  		0.8328724930562647 		0.36190990283639224  0.24997330444638569 		Uiso   ? 		H 		0.03458
H 1.0  		0.8399694312376347 		0.8644126018254982  0.25074522406896843 		Uiso   ? 		H 		0.03328
H 1.0  		0.4908334692705269 		0.1504073019923447  0.25704923432006105 		Uiso   ? 		H 		0.03210
H 1.0  		0.49603240973767726 		0.7149867504171166  0.25396155582972996 		Uiso   ? 		H 		0.03500
H 1.0  		0.9972415380460358 		0.1589949946020218  0.2521604100437035 		Uiso   ? 		H 		0.13923
H 1.0  		0.9944973293463927 		0.7255373441947198  0.2525463698549949 		Uiso   ? 		H 		0.13936
H 1.0  		0.3357047520191409 		0.36755324369418  0.2232134241968498 		Uiso   ? 		H 		0.13934
H 1.0  		0.3374389713011447 		0.8661301403474335  0.22205554476297565 		Uiso   ? 		H 		0.13931
H 1.0  		0.8559376349498463 		0.3668171557562077  0.21382173545542613 		Uiso   ? 		H 		0.13979
H 1.0  		0.8533322403718108 		0.865639415055452  0.21343577564413477 		Uiso   ? 		H 		0.13940
H 1.0  		0.34822639808684674 		0.3704975954460693  0.3620303029913172 		Uiso   ? 		H 		0.13402
H 1.0  		0.3106980789330562 		0.8666208656394151  0.37193660481446267 		Uiso   ? 		H 		0.13359
H 1.0  		0.8345770567268197 		0.3746687604279125  0.37206525808489316 		Uiso   ? 		H 		0.13402
H 1.0  		0.771565190993222 		0.867847678869369  0.3664045141859529 		Uiso   ? 		H 		0.13360
H 1.0  		0.4899177698903444 		0.1494258514083816  0.21678076067532676 		Uiso   ? 		H 		0.10546
H 1.0  		0.4904724747657179 		0.708116596329375  0.2172953737570486 		Uiso   ? 		H 		0.10668
H 1.0  		0.9939467798019483 		0.15580528020414175  0.21806729337963138 		Uiso   ? 		H 		0.10546
H 1.0  		0.9954676486486322 		0.7194032780449505  0.21909651954307505 		Uiso   ? 		H 		0.10666
H 1.0  		0.49437040562342627 		0.2127294140740014  0.3646033683999264 		Uiso   ? 		H 		0.10679
H 1.0  		0.4912020768421146 		0.7142506624791443  0.37180795154403223 		Uiso   ? 		H 		0.10709
H 1.0  		0.993731108220669 		0.21444695259593682  0.3660185543746615 		Uiso   ? 		H 		0.10679
H 1.0  		0.9932459730740102 		0.7005103543036608  0.3693635394058535 		Uiso   ? 		H 		0.10709
H 1.0  		0.09746736406737878 		0.11164000392580235  0.2594936464582398 		Uiso   ? 		H 		0.11409
H 1.0  		0.09811970305706952 		0.62420257140053  0.24444121381787584 		Uiso   ? 		H 		0.11405
H 1.0  		0.5979956020394545 		0.1101678280498577  0.2565346212383392 		Uiso   ? 		H 		0.11410
H 1.0  		0.593528260501581 		0.6129158896849545  0.26000825953996165 		Uiso   ? 		H 		0.11409
H 1.0  		0.3317353849227146 		0.2622926685641378  0.24881542501251153 		Uiso   ? 		H 		0.11405
H 1.0  		0.3378860755244294 		0.7697026204730593  0.24842946520122017 		Uiso   ? 		H 		0.11540
H 1.0  		0.8370874793134644 		0.2662184708999902  0.24830081193078968 		Uiso   ? 		H 		0.11545
H 1.0  		0.8048051888160579 		0.7375601138482677  0.2459850530630414 		Uiso   ? 		H 		0.11404
H 1.0  		0.10522636377434505 		0.21003042496810287  0.25872172683565703 		Uiso   ? 		H 		0.11542
H 1.0  		0.10219097325773108 		0.7849151045244872  0.25769250067221333 		Uiso   ? 		H 		0.11110
H 1.0  		0.5960675430867515 		0.2019334576504073  0.2544761689114518 		Uiso   ? 		H 		0.11110
H 1.0  		0.6015993323391529 		0.7603788399254099  0.25100253060982936 		Uiso   ? 		H 		0.11105
H 1.0  		0.19614845911080014 		0.12243596034939641  0.25293232966628626 		Uiso   ? 		H 		0.11186
H 1.0  		0.18405969842257727 		0.6129158896849545  0.2610374857034053 		Uiso   ? 		H 		0.11106
H 1.0  		0.6868164940731978 		0.1101678280498577  0.26463977727545823 		Uiso   ? 		H 		0.11185
H 1.0  		0.6891664332955652 		0.6163509667288253  0.2546048221818823 		Uiso   ? 		H 		0.11410
H 1.0  		0.10041179193950842 		0.23015016193934637  0.22398534381943258 		Uiso   ? 		H 		0.11410
H 1.0  		0.10080166312673128 		0.7625871037393268  0.2232134241968498 		Uiso   ? 		H 		0.11110
H 1.0  		0.5948606618895981 		0.20929433703013053  0.22295611765598888 		Uiso   ? 		H 		0.11110
H 1.0  		0.5919293819641898 		0.7333889488664246  0.2242426503602935 		Uiso   ? 		H 		0.11105
H 1.0  		0.1021585095393332 		0.26891746000588873  0.3664045141859529 		Uiso   ? 		H 		0.11185
H 1.0  		0.1012155247025831 		0.7544901364216313  0.3683343132424098 		Uiso   ? 		H 		0.11106
H 1.0  		0.5998387201886053 		0.25664932770635  0.37077872538058854 		Uiso   ? 		H 		0.11185
H 1.0  		0.6012424118313175 		0.7677397193051331  0.37167929827360174 		Uiso   ? 		H 		0.11105
H 1.0  		0.19187226279566588 		0.11728334478359015  0.21575153451188306 		Uiso   ? 		H 		0.11183
H 1.0  		0.20562677730203446 		0.6335263519481794  0.22334207746728027 		Uiso   ? 		H 		0.11105
H 1.0  		0.7009880838894016 		0.13298655412699972  0.22359938400814117 		Uiso   ? 		H 		0.11188
H 1.0  		0.6975304074760886 		0.6254293846304839  0.22411399708986302 		Uiso   ? 		H 		0.11110
H 1.0  		0.18917562924624637 		0.11826479536755324  0.3624162628026086 		Uiso   ? 		H 		0.11110
H 1.0  		0.19680727457737932 		0.6303366375502993  0.3616443431800258 		Uiso   ? 		H 		0.11409
H 1.0  		0.6948300242227744 		0.12194523505741486  0.3633168356956218 		Uiso   ? 		H 		0.02802
H 1.0  		0.6842615640862904 		0.6129158896849545  0.3602291572052907 		Uiso   ? 		H 		0.02805
H 1.0  		0.3896283334166379 		0.9743350672293651  0.22359938400814117 		Uiso   ? 		H 		0.02802
H 1.0  		0.39583726330142743 		0.47379526940818534  0.21948247935436643 		Uiso   ? 		H 		0.02805
H 1.0  		0.9023583216249453 		0.9726175287074297  0.2196111326247969 		Uiso   ? 		H 		0.02802
H 1.0  		0.8984334619287819 		0.473059181470213  0.22192689149254521 		Uiso   ? 		H 		0.02805
H 1.0  		0.3563724608740868 		0.9711453528314851  0.3696208459467144 		Uiso   ? 		H 		0.02802
H 1.0  		0.40417484461340714 		0.4777210717440377  0.3586853179601252 		Uiso   ? 		H 		0.02805
H 1.0  		0.8255771542462322 		0.9762979683972913  0.36215895626174766 		Uiso   ? 		H 		0.02803
H 1.0  		0.8894871241143166 		0.48066542349592706  0.3705214188397276 		Uiso   ? 		H 		0.02805
H 1.0  		0.249300576470676 		0.06894690352340761  0.21986843916565782 		Uiso   ? 		H 		0.02802
H 1.0  		0.2577733848682792 		0.5793012071842184  0.22269881111512796 		Uiso   ? 		H 		0.02805
H 1.0  		0.7513185667950177 		0.07385415644322309  0.22205554476297565 		Uiso   ? 		H 		0.10546
H 1.0  		0.7518588578336451 		0.5704681519285505  0.22025439897694918 		Uiso   ? 		H 		0.10670
H 1.0  		0.24204072012008043 		0.06207674943566592  0.35804205160797287 		Uiso   ? 		H 		0.11404
H 1.0  		0.245994293830747 		0.5731671410344489  0.3616443431800258 		Uiso   ? 		H 		0.10546
H 1.0  		0.7406653441640381 		0.062322112081656694  0.36010050393486026 		Uiso   ? 		H 		0.10665
H 1.0  		0.7520320021836538 		0.5746393169103936  0.3670477805381052 		Uiso   ? 		H 		0.10546
H 1.0  		0.4019527634117506 		0.9743350672293651  0.25306098293671675 		Uiso   ? 		H 		0.10669
H 1.0  		0.394807681785212 		0.4742859947001669  0.248944078282942 		Uiso   ? 		H 		0.11542
H 1.0  		0.8962442500725576 		0.9701639022475219  0.24971599790552476 		Uiso   ? 		H 		0.10546
H 1.0  		0.8910597234421532 		0.467661203258416  0.2492013848238029 		Uiso   ? 		H 		0.10672
H 1.0  		0.2460146158494365 		0.06747472764746296  0.2562773146974783 		Uiso   ? 		H 		0.10679
H 1.0  		0.24224816237345687 		0.5648248110707627  0.25794980721307426 		Uiso   ? 		H 		0.10712
H 1.0  		0.7435087291949228 		0.0603592109137305  0.25640596796790877 		Uiso   ? 		H 		0.10679
H 1.0  		0.7378868052359937 		0.5569732063990579  0.25987960626953116 		Uiso   ? 		H 		0.10708
H 1.0  		0.3840856850384409 		0.20634998527824125  0.24817215866035924 		Uiso   ? 		H 		0.10679
H 1.0  		0.38716290519124574 		0.7122877613112181  0.2462423596039023 		Uiso   ? 		H 		0.10710
H 1.0  		0.8951444658826152 		0.21616449111787223  0.25138849042112077 		Uiso   ? 		H 		0.10679
H 1.0  		0.8709567183253861 		0.6973206399057809  0.24354064092486263 		Uiso   ? 		H 		0.10708
H 1.0  		0.36987767116585457 		0.3305034841495731  0.16686329174830788 		Uiso   ? 		H 		0.11404
H 1.0  		0.3670445123157532 		0.8322700952007067  0.16017332168592394 		Uiso   ? 		H 		0.03151
H 1.0  		0.8672032824532507 		0.33197566002551776  0.16338965344668543 		Uiso   ? 		H 		0.03196
H 1.0  		0.8678421815281747 		0.8300618313867898  0.16917905061605618 		Uiso   ? 		H 		0.03151
H 1.0  		0.36802220068290525 		0.3297673962116008  0.3079959294105236 		Uiso   ? 		H 		0.03198
H 1.0  		0.3687861006626695 		0.8344783590146236  0.3043936378384707 		Uiso   ? 		H 		0.03151
H 1.0  		0.8707193284925157 		0.33688291294533323  0.30606613035406666 		Uiso   ? 		H 		0.03201
H 1.0  		0.8650140705970264 		0.8290803808028266  0.3135280200390334 		Uiso   ? 		H 		0.11540
H 1.0  		0.13602459946733889 		0.33197566002551776  0.16531945250314234 		Uiso   ? 		H 		0.03151
H 1.0  		0.13645332951589267 		0.8364412601825498  0.1648048394214205 		Uiso   ? 		H 		0.03198
H 1.0  		0.6314595497803942 		0.3258415938757484  0.17098019640208265 		Uiso   ? 		H 		0.03151
H 1.0  		0.6323373318961913 		0.8290803808028266  0.16210312074238084 		Uiso   ? 		H 		0.03190
H 1.0  		0.13545286764121464 		0.33295711060948086  0.3136566733094639 		Uiso   ? 		H 		0.03151
H 1.0  		0.13407427065198774 		0.8342329963686329  0.2980896275873781 		Uiso   ? 		H 		0.03195
H 1.0  		0.6360621184038909 		0.32952203356561  0.3046509443793316 		Uiso   ? 		H 		0.13286
H 1.0  		0.6375292275915081 		0.835214446952596  0.3153291658250599 		Uiso   ? 		H 		0.13278
H 1.0  		0.13906033096091985 		0.09495534399842968  0.1631323469058245 		Uiso   ? 		H 		0.13286
H 1.0  		0.1307616898442266 		0.6023652959073511  0.16531945250314234 		Uiso   ? 		H 		0.13279
H 1.0  		0.6384714981492906 		0.1005986848562175  0.15875813571118885 		Uiso   ? 		H 		0.13286
H 1.0  		0.6316075025018167 		0.5977034056335264  0.16390426652840728 		Uiso   ? 		H 		0.13279
H 1.0  		0.13548318852270944 		0.10182549808617136  0.30580882381320573 		Uiso   ? 		H 		0.13289
H 1.0  		0.13594246677073607 		0.6004023947394249  0.3040076780271793 		Uiso   ? 		H 		0.13299
H 1.0  		0.6392797918703288 		0.09839042104230053  0.30426498456804024 		Uiso   ? 		H 		0.13289
H 1.0  		0.6340763717791702 		0.5996663068014526  0.3090251555739673 		Uiso   ? 		H 		0.13299
H 1.0  		0.46394545211897253 		0.24070075571694965  0.16441887961012913 		Uiso   ? 		H 		0.13289
H 1.0  		0.45868509095979765 		0.7427127294140741  0.16133120111979807 		Uiso   ? 		H 		0.13299
H 1.0  		0.9546422010958733 		0.23996466777897735  0.15657103011387102 		Uiso   ? 		H 		0.11404
H 1.0  		0.9633492502424308 		0.7427127294140741  0.1626177338241027 		Uiso   ? 		H 		0.13362
H 1.0  		0.45976138736324634 		0.24168220630091278  0.3092824621148282 		Uiso   ? 		H 		0.13392
H 1.0  		0.46201271854931725 		0.7463931691039356  0.30812458268095405 		Uiso   ? 		H 		0.13363
H 1.0  		0.9652843049580455 		0.24339974482284818  0.3115982209825765 		Uiso   ? 		H 		0.13393
H 1.0  		0.9601466235577515 		0.7456570811659634  0.31108360790085465 		Uiso   ? 		H 		0.13363
H 1.0  		0.4555659765207347 		0.009323780547649426  0.16094524130850668 		Uiso   ? 		H 		0.11541
H 1.0  		0.4586256014278437 		0.5118264795367553  0.16441887961012913 		Uiso   ? 		H 		0.13393
H 1.0  		0.958490868602411 		0.013494945529492592  0.16699194501873835 		Uiso   ? 		H 		0.13402
H 1.0  		0.9604463756795922 		0.5137893807046815  0.1662200253961556 		Uiso   ? 		H 		0.13360
H 1.0  		0.4532350611019984 		0.004661890273824713  0.30117730607770915 		Uiso   ? 		H 		0.03178
H 1.0  		0.4561085887053216 		0.5123172048287369  0.3105689948191328 		Uiso   ? 		H 		0.03179
H 1.0  		0.9571895346998902 		0.00834232996368633  0.29886154720996083 		Uiso   ? 		H 		0.03039
H 1.0  		0.9546739505353032 		0.5069192266169399  0.2991188537508218 		Uiso   ? 		H 		0.03040
H 1.0  		0.22607011392795412 		0.01398567082147414  0.1635183067171159 		Uiso   ? 		H 		0.03045
H 1.0  		0.22827745699978563 		0.51010894101482  0.16827847772304297 		Uiso   ? 		H 		0.13934
H 1.0  		0.7269816652764086 		0.010305231131612524  0.15747160300688423 		Uiso   ? 		H 		0.13933
H 1.0  		0.727353454256946 		0.515506919226617  0.16171716093108943 		Uiso   ? 		H 		0.10635
H 1.0  		0.22505812765743446 		0.017911473157326527  0.3061947836244971 		Uiso   ? 		H 		0.10635
H 1.0  		0.22665439308082108 		0.5191873589164786  0.30001942664383496 		Uiso   ? 		H 		0.41443
H 1.0  		0.7261252281102021 		0.014967121405437237  0.3096684219261196 		Uiso   ? 		H 		0.11421
H 1.0  		0.7244572834889741 		0.5071645892629307  0.30851054249224547 		Uiso   ? 		H 		0.10701
H 1.0  		0.39269000314280655 		0.2919815487290215  0.2387804699189356 		Uiso   ? 		H 		0.10701
H 1.0  		0.39628849053060755 		0.7930120718421828  0.23299107274956482 		Uiso   ? 		H 		0.11492
H 1.0  		0.8998230317027933 		0.2939444498969477  0.23800855029635282 		Uiso   ? 		H 		0.11491
H 1.0  		0.8729650434646884 		0.7812346648346257  0.2400670026232402 		Uiso   ? 		H 		0.11422
H 1.0  		0.38422094444909816 		0.2860928452252429  0.38493058512793926 		Uiso   ? 		H 		0.41439
H 1.0  		0.37027255794699687 		0.7868780056924134  0.3864744243731048 		Uiso   ? 		H 		0.11421
H 1.0  		0.8895160977718314 		0.29075473549906766  0.38583115802095247 		Uiso   ? 		H 		0.11165
H 1.0  		0.8997610427158237 		0.7974285994700168  0.3815856000967473 		Uiso   ? 		H 		0.11165
H 1.0  		0.25889873398880847 		0.9767886936892728  0.22076901205867103 		Uiso   ? 		H 		0.11069
H 1.0  		0.27580438765782744 		0.47256845617823146  0.22694436903933318 		Uiso   ? 		H 		0.11069
H 1.0  		0.7436369605176345 		0.9743350672293651  0.2192251728135055 		Uiso   ? 		H 		0.11491
H 1.0  		0.7460451390230768 		0.47256845617823146  0.22038305224737967 		Uiso   ? 		H 		0.11491
H 1.0  		0.06346796257267467 		0.06403965060359211  0.2363360577807568 		Uiso   ? 		H 		0.41436
H 1.0  		0.0633578301405365 		0.5699774266365689  0.23299107274956482 		Uiso   ? 		H 		0.11165
H 1.0  		0.5553081752018237 		0.0613406614976936  0.23556413815817404 		Uiso   ? 		H 		0.11165
H 1.0  		0.5577719965602242 		0.5660516243007165  0.23556413815817404 		Uiso   ? 		H 		0.11069
H 1.0  		0.06803998299669864 		0.07360879379723231  0.3757962029273765 		Uiso   ? 		H 		0.11069
H 1.0  		0.06793400589548962 		0.5685052507606243  0.374252363682211 		Uiso   ? 		H 		0.11069
H 1.0  		0.5720490765166474 		0.07017371675336147  0.37965580104029034 		Uiso   ? 		H 		0.11491
H 1.0  		0.5699913420421518 		0.5692413386985965  0.37798330852469436 		Uiso   ? 		H 		0.11069
H 1.0  		0.4150097818992654 		0.2698989105898518  0.23800855029635282 		Uiso   ? 		H 		0.41427
H 1.0  		0.41542091670212344 		0.7709294337030131  0.2344062587242999 		Uiso   ? 		H 		0.11165
H 1.0  		0.920867869425275 		0.271861811757778  0.23697932413290915 		Uiso   ? 		H 		0.11165
H 1.0  		0.8970023388454793 		0.7625871037393268  0.243926600736154 		Uiso   ? 		H 		0.03205
H 1.0  		0.411062279038453 		0.26965354794386104  0.3832580926123433 		Uiso   ? 		H 		0.03205
H 1.0  		0.3970986184366153 		0.7733830601629209  0.37991310758115127 		Uiso   ? 		H 		0.03204
H 1.0  		0.9113868244610469 		0.2698989105898518  0.38583115802095247 		Uiso   ? 		H 		0.41436
H 1.0  		0.9197017626083777 		0.7731376975169301  0.38171425336717774 		Uiso   ? 		H 		0.03204
H 1.0  		0.23955333068397341 		0.9750711551673374  0.36035781047572124 		Uiso   ? 		H 		0.03204
H 1.0  		0.2602708545011469 		0.4801746982039455  0.3670477805381052 		Uiso   ? 		H 		0.11421
H 1.0  		0.7384385883454291 		0.9728628913534204  0.36254491607303907 		Uiso   ? 		H 		0.03037
H 1.0  		0.7420078257488156 		0.47256845617823146  0.36293087588433043 		Uiso   ? 		H 		0.03204
H 1.0  		0.20211290642470642 		0.9490627146923153  0.23247645966784297 		Uiso   ? 		H 		0.10635
H 1.0  		0.21372390103118288 		0.4482775542251448  0.23093262042267745 		Uiso   ? 		H 		0.10635
H 1.0  		0.6969344579433575 		0.9417018353125921  0.23826585683721374 		Uiso   ? 		H 		0.03185
H 1.0  		0.6930577416923625 		0.4396898616154677  0.23826585683721374 		Uiso   ? 		H 		0.10635
H 1.0  		0.1921235471792591 		0.9426832858965553  0.377340042172542 		Uiso   ? 		H 		0.03177
H 1.0  		0.20771075866105107 		0.4536755324369418  0.3808136804741645 		Uiso   ? 		H 		0.03177
H 1.0  		0.685876171359374 		0.9399842967906566  0.37978445431072083 		Uiso   ? 		H 		0.03185
H 1.0  		0.6843697163494361 		0.4384630483855138  0.377597348713403 		Uiso   ? 		H 		0.11491
H 1.0  		0.1956234098468755 		0.049563254490136426  0.23607875123989588 		Uiso   ? 		H 		0.10635
H 1.0  		0.20075979303211117 		0.55451957993915  0.23595009796946545 		Uiso   ? 		H 		0.10701
H 1.0  		0.6966840338227545 		0.05128079301207184  0.23826585683721374 		Uiso   ? 		H 		0.10701
H 1.0  		0.6954827365144658 		0.5456865246834823  0.2344062587242999 		Uiso   ? 		H 		0.11421
H 1.0  		0.19214023315304285 		0.045146726862302484  0.37888388141770757 		Uiso   ? 		H 		0.10701
H 1.0  		0.19128754569073103 		0.5542742172931593  0.37528158984565463 		Uiso   ? 		H 		0.10701
H 1.0  		0.6938207324002147 		0.04342918834036706  0.3795271477698599 		Uiso   ? 		H 		0.03130
H 1.0  		0.6938661490723896 		0.5501030523113162  0.38068502720373404 		Uiso   ? 		H 		0.03130
H 1.0  		0.4157377447836368 		0.9453822750024538  0.23427760545386944 		Uiso   ? 		H 		0.03130
H 1.0  		0.41746678580381036 		0.4414074001374031  0.23556413815817404 		Uiso   ? 		H 		0.03130
H 1.0  		0.9178256291297718 		0.9402296594366474  0.23582144469903496 		Uiso   ? 		H 		0.03130
H 1.0  		0.9152719973579228 		0.4357640592796153  0.23929508300065744 		Uiso   ? 		H 		0.03130
H 1.0  		0.39935192979167866 		0.9466090882324076  0.37180795154403223 		Uiso   ? 		H 		0.03037
H 1.0  		0.4212041196382526 		0.448032191579154  0.38184290663760817 		Uiso   ? 		H 		0.11421
H 1.0  		0.7525688844953535 		0.9046520757679851  0.3805563739333036 		Uiso   ? 		H 		0.13863
H 1.0  		0.9170598949650378 		0.45293944449896956  0.38184290663760817 		Uiso   ? 		H 		0.03044
H 1.0  		0.175853513158371 		0.07164589262930611  0.23723663067377004 		Uiso   ? 		H 		0.13864
H 1.0  		0.17834140623935577 		0.5751300422023751  0.23517817834688268 		Uiso   ? 		H 		0.13863
H 1.0  		0.6748461764789712 		0.07262734321326922  0.2398096960823793 		Uiso   ? 		H 		0.41426
H 1.0  		0.6736032122024023 		0.5648248110707627  0.2337629923721476 		Uiso   ? 		H 		0.13933
H 1.0  		0.17089817935796806 		0.0642850132495829  0.37875522814727713 		Uiso   ? 		H 		0.03385
H 1.0  		0.17447723731510356 		0.5793012071842184  0.3783692683359857 		Uiso   ? 		H 		0.03269
H 1.0  		0.669765841773728 		0.058641672391795074  0.37695408236125066 		Uiso   ? 		H 		0.03140
H 1.0  		0.6746679842100093 		0.5712042398665227  0.3808136804741645 		Uiso   ? 		H 		0.03056
H 1.0  		0.04014829023648281 		0.14574541171851998  0.23363433910171716 		Uiso   ? 		H 		0.42366
H 1.0  		0.07295298455877552 		0.7957110609480813  0.23324837929042574 		Uiso   ? 		H 		0.39213
H 1.0  		0.555637956237114 		0.22646972224948478  0.23929508300065744 		Uiso   ? 		H 		0.11390
H 1.0  		0.5704600508580387 		0.7792717636666995  0.23260511293827346 		Uiso   ? 		H 		0.11392
H 1.0  		0.06636203951266535 		0.2912454607910492  0.3804277206628731 		Uiso   ? 		H 		0.11046
H 1.0  		0.07363627737497336 		0.7868780056924134  0.3768254290908202 		Uiso   ? 		H 		0.11039
H 1.0  		0.5683448393456154 		0.289282559623123  0.37991310758115127 		Uiso   ? 		H 		0.40804
H 1.0  		0.5680222167411477 		0.7952203356560998  0.38235751971933 		Uiso   ? 		H 		0.11394
H 1.0  		0.40824431295413266 		0.22916871135538328  0.21652345413446583 		Uiso   ? 		H 		0.11396
H 1.0  		0.4075689251727588 		0.7314260476984984  0.2122778962102606 		Uiso   ? 		H 		0.11399
H 1.0  		0.9102294339330421 		0.2335852389832172  0.21292116256241292 		Uiso   ? 		H 		0.11039
H 1.0  		0.905155170077653 		0.7304445971145354  0.21896786627264458 		Uiso   ? 		H 		0.11041
H 1.0  		0.3657030369779886 		0.042938463048385514  0.23234780639741254 		Uiso   ? 		H 		0.42286
H 1.0  		0.40964826423985656 		0.5388163705957406  0.2364647110511873 		Uiso   ? 		H 		0.11041
H 1.0  		0.8749715990690883 		0.02919815487290215  0.23813720356678328 		Uiso   ? 		H 		0.11046
H 1.0  		0.8638119776758145 		0.535135930905879  0.23234780639741254 		Uiso   ? 		H 		0.41207
H 1.0  		0.4143063453734344 		0.043674550986357835  0.37708273563168115 		Uiso   ? 		H 		0.03478
H 1.0  		0.4347577820271223 		0.5694867013445873  0.3772113889021116 		Uiso   ? 		H 		0.03522
H 1.0  		0.9214240998336848 		0.04858180390617333  0.3782406150655553 		Uiso   ? 		H 		0.11391
H 1.0  		0.9283196666115325 		0.5591814702129748  0.3741237104117805 		Uiso   ? 		H 		0.03248
H 1.0  		0.42533883970885283 		0.17666110511335756  0.2347922185355913 		Uiso   ? 		H 		0.03224
H 1.0  		0.36391851577276757 		0.6190499558347238  0.23324837929042574 		Uiso   ? 		H 		0.41198
H 1.0  		0.8689516069200672 		0.12807930120718422  0.23787989702592235 		Uiso   ? 		H 		0.03404
H 1.0  		0.8766906579103446 		0.6433408577878104  0.23466356526516083 		Uiso   ? 		H 		0.03474
H 1.0  		0.4332833360996263 		0.13347727941898127  0.38004176085158176 		Uiso   ? 		H 		0.03508
H 1.0  		0.42854057380550825 		0.6654234959269801  0.37708273563168115 		Uiso   ? 		H 		0.02990
H 1.0  		0.932732014925348 		0.1523702031602709  0.38107098701502545 		Uiso   ? 		H 		0.03139
H 1.0  		0.9279406222250717 		0.6629698694670724  0.37669677582038974 		Uiso   ? 		H 		0.03342
H 1.0  		0.30115648918093946 		0.04686426538423791  0.23402029891300852 		Uiso   ? 		H 		0.03458
H 1.0  		0.3113616013416215 		0.5339091176759251  0.23530683161731314 		Uiso   ? 		H 		0.03328
H 1.0  		0.804295705619915 		0.03361468250073609  0.2354354848877436 		Uiso   ? 		H 		0.03210
H 1.0  		0.7971428493014295 		0.5454411620374914  0.23492087180602175 		Uiso   ? 		H 		0.03500
H 1.0  		0.3291324897996949 		0.02674452841299441  0.37991310758115127 		Uiso   ? 		H 		0.13923
H 1.0  		0.3410051409545706 		0.5370988320738052  0.3791411879585685 		Uiso   ? 		H 		0.13936
H 1.0  		0.8299148849123801 		0.02748061635096673  0.38210021317846915 		Uiso   ? 		H 		0.13934
H 1.0  		0.8344795362714916 		0.5334183923839435  0.3784979216064162 		Uiso   ? 		H 		0.13931
H 1.0  		0.38576153469449287 		0.20757679850819513  0.37167929827360174 		Uiso   ? 		H 		0.13979
H 1.0  		0.37176268360126363 		0.7044361566395133  0.3761821627386679 		Uiso   ? 		H 		0.13940
H 1.0  		0.8882197794632299 		0.20953969967612132  0.37360909733005865 		Uiso   ? 		H 		0.13402
H 1.0  		0.8975008815818712 		0.7176857395230151  0.36653316745638337 		Uiso   ? 		H 		0.13359
H 1.0  		0.17586485924515632 		0.30498576896653257  0.23492087180602175 		Uiso   ? 		H 		0.13402
H 1.0  		0.2209845853197352 		0.8168122485032879  0.23350568583128667 		Uiso   ? 		H 		0.13360
H 1.0  		0.718106909684684 		0.30449504367455105  0.23466356526516083 		Uiso   ? 		H 		0.10546
H 1.0  		0.7166056329365763 		0.8055255667877123  0.2364647110511873 		Uiso   ? 		H 		0.10668
H 1.0  		0.1822548385147786 		0.3020414172146433  0.37875522814727713 		Uiso   ? 		H 		0.10546
H 1.0  		0.2141825786592308 		0.8104328197075278  0.3721939113553236 		Uiso   ? 		H 		0.10666
H 1.0  		0.6616575992757724 		0.23579350279713418  0.37566754965694604 		Uiso   ? 		H 		0.10679
H 1.0  		0.6556704441471499 		0.7618510158013545  0.37965580104029034 		Uiso   ? 		H 		0.10709
H 1.0  		0.2904563243447488 		0.31062910982432035  0.23620740451032637 		Uiso   ? 		H 		0.10679
H 1.0  		0.2947904033248452 		0.7893316321523212  0.23414895218343898 		Uiso   ? 		H 		0.10709
H 1.0  		0.7956394297164187 		0.29934242810874473  0.2364647110511873 		Uiso   ? 		H 		0.11409
H 1.0  		0.7903397227349231 		0.8055255667877123  0.23723663067377004 		Uiso   ? 		H 		0.11405
H 1.0  		0.26955127466585405 		0.3125920109922466  0.3822288664488996 		Uiso   ? 		H 		0.11410
H 1.0  		0.26751761191394274 		0.8104328197075278  0.3765681225499593 		Uiso   ? 		H 		0.11409
H 1.0  		0.7613442041128249 		0.2473255471587006  0.3795271477698599 		Uiso   ? 		H 		0.11405
H 1.0  		0.7906244280750057 		0.8018451270978506  0.38094233374459496 		Uiso   ? 		H 		0.11540
H 1.0  		0.1615867240327984 		0.21395622730395528  0.23492087180602175 		Uiso   ? 		H 		0.11545
H 1.0  		0.15812024999663754 		0.704681519285504  0.23414895218343898 		Uiso   ? 		H 		0.11404
H 1.0  		0.6573586784620339 		0.1906467759348317  0.23697932413290915 		Uiso   ? 		H 		0.11542
H 1.0  		0.6823635663720705 		0.6749926391206204  0.2363360577807568 		Uiso   ? 		H 		0.11110
H 1.0  		0.1540921399722587 		0.1908921385808225  0.3751529365752242 		Uiso   ? 		H 		0.11110
H 1.0  		0.1535834200640052 		0.7019825301796055  0.3757962029273765 		Uiso   ? 		H 		0.11105
H 1.0  		0.6832755160483583 		0.1715084895475513  0.3772113889021116 		Uiso   ? 		H 		0.11186
H 1.0  		0.6650203850316498 		0.6730297379526942  0.37875522814727713 		Uiso   ? 		H 		0.11106
H 1.0  		0.32901553991370114 		0.19947983119049956  0.1453781955864209 		Uiso   ? 		H 		0.11185
H 1.0  		0.3259610932684224 		0.6995289037196978  0.1444776226934077 		Uiso   ? 		H 		0.11410
H 1.0  		0.8220168114407945 		0.1982530179605457  0.14692203483158642 		Uiso   ? 		H 		0.11410
H 1.0  		0.8366847041813863 		0.709098046913338  0.14988106005148705 		Uiso   ? 		H 		0.11110
H 1.0  		0.32591799774220687 		0.19923446854450882  0.29217157714757686 		Uiso   ? 		H 		0.11110
H 1.0  		0.3274091786524084 		0.7037000687015409  0.29114235098413316 		Uiso   ? 		H 		0.11105
H 1.0  		0.8255722033023799 		0.19898910589851804  0.2915283107954246 		Uiso   ? 		H 		0.11185
H 1.0  		0.8272430050394788 		0.7029639807635687  0.2929434967701597 		Uiso   ? 		H 		0.11106
H 1.0  		0.2725188816725439 		0.9215820983413485  0.13997475822834154 		Uiso   ? 		H 		0.11185
H 1.0  		0.2724845837691764 		0.423005201688095  0.143448396529964 		Uiso   ? 		H 		0.11105
H 1.0  		0.776985824882584 		0.9186377465894594  0.14203321055522894 		Uiso   ? 		H 		0.11183
H 1.0  		0.7679130576053432 		0.4215330258121504  0.14795126099503011 		Uiso   ? 		H 		0.11105
H 1.0  		0.27231518912306235 		0.923299636863284  0.2889552453868154 		Uiso   ? 		H 		0.11188
H 1.0  		0.27232255818797485 		0.4269310040239474  0.2901131248206895 		Uiso   ? 		H 		0.11110
H 1.0  		0.7638049577212647 		0.923299636863284  0.29487329582661653 		Uiso   ? 		H 		0.11110
H 1.0  		0.7607934762593243 		0.41834331141427034  0.29384406966317284 		Uiso   ? 		H 		0.11409
H 1.0  		0.047806734063193766 		0.1474629502404554  0.14563550212728182 		Uiso   ? 		H 		0.02802
H 1.0  		0.04715541800440409 		0.6484934733536166  0.1476939544541692 		Uiso   ? 		H 		0.02805
H 1.0  		0.5466392059875622 		0.1349494552949259  0.14756530118373876 		Uiso   ? 		H 		0.02802
H 1.0  		0.543931048042301 		0.6433408577878104  0.14434896942297723 		Uiso   ? 		H 		0.02805
H 1.0  		0.04393376751609365 		0.14991657670036315  0.2861248734373452 		Uiso   ? 		H 		0.02802
H 1.0  		0.045028195135149496 		0.6421140445578566  0.2830371949470142 		Uiso   ? 		H 		0.02805
H 1.0  		0.5482386851449321 		0.15089802728432625  0.28676813978949756 		Uiso   ? 		H 		0.02802
H 1.0  		0.5472521991549322 		0.6516831877514968  0.2892125519276763 		Uiso   ? 		H 		0.02805
H 1.0  		0.3222639978443248 		0.19702620473059185  0.18294495055211552 		Uiso   ? 		H 		0.02803
H 1.0  		0.318186446159719 		0.6929041122779468  0.18255899074082413 		Uiso   ? 		H 		0.02805
H 1.0  		0.8166452949185804 		0.1926096771027579  0.18590397577201612 		Uiso   ? 		H 		0.02802
H 1.0  		0.8222548018936437 		0.6951123760918638  0.18243033747039367 		Uiso   ? 		H 		0.02805
H 1.0  		0.32592679536505476 		0.2009520070664442  0.3270366134342318 		Uiso   ? 		H 		0.10546
H 1.0  		0.3286119045186327 		0.7073805083914025  0.32690796016380136 		Uiso   ? 		H 		0.10670
H 1.0  		0.8266587258866119 		0.19776229266856415  0.3297383321132715 		Uiso   ? 		H 		0.11404
H 1.0  		0.820114626070612 		0.6980567278437532  0.32870910594982783 		Uiso   ? 		H 		0.10546
H 1.0  		0.2696995683642436 		0.9223181862793209  0.17908535243920168 		Uiso   ? 		H 		0.10665
H 1.0  		0.2657987803906644 		0.4215330258121504  0.17882804589834075 		Uiso   ? 		H 		0.10546
H 1.0  		0.7725651982319439 		0.9208460104033763  0.1843601365268506 		Uiso   ? 		H 		0.10669
H 1.0  		0.770642560500195 		0.42104230052016883  0.18294495055211552 		Uiso   ? 		H 		0.11542
H 1.0  		0.26866118922518023 		0.9210913730493671  0.3249781611073444 		Uiso   ? 		H 		0.10546
H 1.0  		0.26574183932264794 		0.4222691137501227  0.32446354802562255 		Uiso   ? 		H 		0.10672
H 1.0  		0.7676691266455169 		0.9191284718814409  0.32780853305681457 		Uiso   ? 		H 		0.10679
H 1.0  		0.7679130576053432 		0.4215330258121504  0.32562142745949674 		Uiso   ? 		H 		0.10712
H 1.0  		0.04027744647225216 		0.14132888409068603  0.18513205614943334 		Uiso   ? 		H 		0.10679
H 1.0  		0.0471336674277793 		0.6560997153793307  0.18809108136933395 		Uiso   ? 		H 		0.10708
H 1.0  		0.5449832727231654 		0.143537147904603  0.18127245803651953 		Uiso   ? 		H 		0.10679
H 1.0  		0.5448203545539398 		0.6391696928059672  0.1799859253322149 		Uiso   ? 		H 		0.10710
H 1.0  		0.047445171263439695 		0.14206497202865837  0.32279105551002657 		Uiso   ? 		H 		0.10679
H 1.0  		0.04562399868385797 		0.6399057807439397  0.32060394991270874 		Uiso   ? 		H 		0.10708
H 1.0  		0.5448735459180616 		0.13396800471096282  0.3239489349439007 		Uiso   ? 		H 		0.11404
H 1.0  		0.546465656010519 		0.6462852095396997  0.3252354676482054 		Uiso   ? 		H 		0.03151
H 1.0  		0.09424298680607454 		0.12219059770340564  0.2251432232533067 		Uiso   ? 		H 		0.03196
H 1.0  		0.10154777286785538 		0.6119344391009913  0.20301486073926744 		Uiso   ? 		H 		0.03151
H 1.0  		0.5943263280418358 		0.11090391598783003  0.21678076067532676 		Uiso   ? 		H 		0.03198
H 1.0  		0.5960082485477419 		0.6229757581705762  0.2216695849516843 		Uiso   ? 		H 		0.03151
H 1.0  		0.28073115342774996 		0.15433310432819708  0.14370570307082492 		Uiso   ? 		H 		0.03201
H 1.0  		0.27297553012267783 		0.649229561291589  0.1428051301778117 		Uiso   ? 		H 		0.11540
H 1.0  		0.7724222934294745 		0.14623613701050153  0.14782260772459968 		Uiso   ? 		H 		0.03151
H 1.0  		0.7726866767508674 		0.6482481107076259  0.14782260772459968 		Uiso   ? 		H 		0.03198
H 1.0  		0.276365146699167 		0.1494258514083816  0.29024177809111995 		Uiso   ? 		H 		0.03151
H 1.0  		0.27653971960711127 		0.6516831877514968  0.2889552453868154 		Uiso   ? 		H 		0.03190
H 1.0  		0.7800983325018812 		0.1513887525763078  0.28856928557552397 		Uiso   ? 		H 		0.03151
H 1.0  		0.7754249772685671 		0.6494749239375798  0.2859962201669147 		Uiso   ? 		H 		0.03195
H 1.0  		0.32134995434005575 		0.9193738345274316  0.14434896942297723 		Uiso   ? 		H 		0.13286
H 1.0  		0.327804243742607 		0.41932476199823343  0.14486358250469905 		Uiso   ? 		H 		0.13278
H 1.0  		0.8276001528652921 		0.9208460104033763  0.1487231806176129 		Uiso   ? 		H 		0.13286
H 1.0  		0.8305166456519537 		0.4234959269800766  0.14640742174986457 		Uiso   ? 		H 		0.13279
H 1.0  		0.32234898765679837 		0.9247718127392287  0.28844063230509354 		Uiso   ? 		H 		0.13286
H 1.0  		0.32046801689332943 		0.42717636666993825  0.28856928557552397 		Uiso   ? 		H 		0.13279
H 1.0  		0.8133961806646458 		0.9213367356953578  0.285224300544332 		Uiso   ? 		H 		0.13289
H 1.0  		0.811072634310822 		0.4203062125821965  0.2870254463303584 		Uiso   ? 		H 		0.13299
H 1.0  		0.04483932204944823 		0.19040141328884091  0.1428051301778117 		Uiso   ? 		H 		0.13289
H 1.0  		0.045798116955846235 		0.691677299047993  0.1444776226934077 		Uiso   ? 		H 		0.13299
H 1.0  		0.544149560055563 		0.18819314947492397  0.1404893713100634 		Uiso   ? 		H 		0.13289
H 1.0  		0.5487382831372588 		0.6929041122779468  0.14074667785092432 		Uiso   ? 		H 		0.13299
H 1.0  		0.10201763391477786 		0.12881538914515656  0.364474715129496 		Uiso   ? 		H 		0.11404
H 1.0  		0.100546905366143 		0.6239572087545393  0.36010050393486026 		Uiso   ? 		H 		0.13362
H 1.0  		0.599415460369927 		0.12660712533123958  0.3673050870789661 		Uiso   ? 		H 		0.13392
H 1.0  		0.5980146258430855 		0.6116890764550005  0.3588139712305557 		Uiso   ? 		H 		0.13363
H 1.0  		0.045766627159427684 		0.2232800078516047  0.29461598928575566 		Uiso   ? 		H 		0.13393
H 1.0  		0.050367816233910845 		0.694867013445873  0.28663948651906707 		Uiso   ? 		H 		0.13363
H 1.0  		0.5462291264406389 		0.22082638139169694  0.2957738687196298 		Uiso   ? 		H 		0.11541
H 1.0  		0.5490822506913171 		0.694867013445873  0.2939727229336034 		Uiso   ? 		H 		0.13393
H 1.0  		0.27499159762889325 		0.14795367553243696  0.18178707111824136 		Uiso   ? 		H 		0.13402
H 1.0  		0.27369401343026717 		0.6472666601236629  0.17921400570963214 		Uiso   ? 		H 		0.13360
H 1.0  		0.7710487443592007 		0.1447639611345569  0.1823016841999632 		Uiso   ? 		H 		0.03178
H 1.0  		0.768688709298927 		0.6440769457257828  0.1806291916843672 		Uiso   ? 		H 		0.03179
H 1.0  		0.2709871537000644 		0.1484444008244185  0.32549277418906625 		Uiso   ? 		H 		0.03039
H 1.0  		0.27322968726328745 		0.651437825105506  0.32369162840303983 		Uiso   ? 		H 		0.03040
H 1.0  		0.7719885154619677 		0.1445185984885661  0.3261360405412186 		Uiso   ? 		H 		0.03045
H 1.0  		0.7682484548545316 		0.647021297477672  0.32562142745949674 		Uiso   ? 		H 		0.13934
H 1.0  		0.34428563134593454 		0.16414761016782808  0.9791800412462385 		Uiso   ? 		H 		0.13933
H 1.0  		0.35070343204203597 		0.6644420453430171  0.9773788954602121 		Uiso   ? 		H 		0.10635
H 1.0  		0.8563124103463889 		0.16144862106192956  0.9741625636994505 		Uiso   ? 		H 		0.10635
H 1.0  		0.8535473113331115 		0.6705761114927864  0.9799519608688213 		Uiso   ? 		H 		0.41443
H 1.0  		0.2960870136014919 		0.24241829423888508  0.9794373477870995 		Uiso   ? 		H 		0.11421
H 1.0  		0.29116365655849713 		0.7272548827166553  0.9822677197365696 		Uiso   ? 		H 		0.10701
H 1.0  		0.8057588054606257 		0.23628422808911573  0.9847121318747484 		Uiso   ? 		H 		0.10701
H 1.0  		0.7989341556354725 		0.7292177838845815  0.9847121318747484 		Uiso   ? 		H 		0.11492
H 1.0  		0.22726280860633952 		0.16979095102561587  0.9766069758376293 		Uiso   ? 		H 		0.11491
H 1.0  		0.21254730839049063 		0.6511924624595152  0.9827823328182914 		Uiso   ? 		H 		0.11422
H 1.0  		0.7287109012895266 		0.1582589066640495  0.9831682926295828 		Uiso   ? 		H 		0.41439
H 1.0  		0.7316126559463633 		0.653646088919423  0.989343649610245 		Uiso   ? 		H 		0.11421
H 1.0  		0.26647342156803694 		0.09691824516635589  0.985741358038192 		Uiso   ? 		H 		0.11165
H 1.0  		0.27282548357327396 		0.5962312297575818  0.9825250262774304 		Uiso   ? 		H 		0.11165
H 1.0  		0.769264515122025 		0.09274708018451272  0.9848407851451788 		Uiso   ? 		H 		0.11069
H 1.0  		0.7733625191681974 		0.5964765924035725  0.9852267449564702 		Uiso   ? 		H 		0.11069
H 1.0  		0.27994483760131483 		0.3741780351359309  0.9885717299876622 		Uiso   ? 		H 		0.11491
H 1.0  		0.26571773527503 		0.8501815683580332  0.9794373477870995 		Uiso   ? 		H 		0.11491
H 1.0  		0.7827007406639115 		0.36313671606634607  0.982653679547861 		Uiso   ? 		H 		0.41436
H 1.0  		0.7984528348427757 		0.8663755029934244  0.9849694384156092 		Uiso   ? 		H 		0.11165
H 1.0  		0.31064211178701906 		0.9149573068995978  0.03821002131784691 		Uiso   ? 		H 		0.11165
H 1.0  		0.30326694474245514 		0.41147315732652867  0.043742111946356736 		Uiso   ? 		H 		0.11069
H 1.0  		0.8074705275620033 		0.9201099224654039  0.0415550063490389 		Uiso   ? 		H 		0.11069
H 1.0  		0.8030132818620364 		0.41736186083030724  0.05454898666251545 		Uiso   ? 		H 		0.11069
H 1.0  		0.03690912583643184 		0.1830405339091177  0.037824061506555526 		Uiso   ? 		H 		0.11491
H 1.0  		0.03491713005280073 		0.6830896064383158  0.04181231288989982 		Uiso   ? 		H 		0.11069
H 1.0  		0.5394289539651043 		0.19702620473059185  0.032420624148476164 		Uiso   ? 		H 		0.41427
H 1.0  		0.5321154192893972 		0.6715575620767495  0.05416302685122407 		Uiso   ? 		H 		0.11165
H 1.0  		0.169294885846636 		0.3972421238590637  0.09365958087337559 		Uiso   ? 		H 		0.11165
H 1.0  		0.17253645272660173 		0.9056335263519482  0.09018594257175314 		Uiso   ? 		H 		0.03205
H 1.0  		0.6684278241718129 		0.4019040141328884  0.09481746030724975 		Uiso   ? 		H 		0.03205
H 1.0  		0.6660654679655797 		0.8948375699283542  0.09636129955241528 		Uiso   ? 		H 		0.03204
H 1.0  		0.518321445301719 		0.04686426538423791  0.09481746030724975 		Uiso   ? 		H 		0.41436
H 1.0  		0.5277053107875858 		0.5454411620374914  0.0926303547099319 		Uiso   ? 		H 		0.03204
H 1.0  		0.017742742738515397 		0.04441063892433016  0.0955893799298325 		Uiso   ? 		H 		0.03204
H 1.0  		0.017262249883775227 		0.5432328982235745  0.09739052571585896 		Uiso   ? 		H 		0.11421
H 1.0  		0.24507739321060712 		0.29934242810874473  0.9614258899268349 		Uiso   ? 		H 		0.03037
H 1.0  		0.2246107314661045 		0.7424673667680832  0.9602680104929608 		Uiso   ? 		H 		0.03204
H 1.0  		0.7435126248828401 		0.25076062420257145  0.9633556889832918 		Uiso   ? 		H 		0.10635
H 1.0  		0.7417636674710114 		0.744920993227991  0.9634843422537223 		Uiso   ? 		H 		0.10635
H 1.0  		0.35060350910679294 		0.27750515261556585  0.06123895672489942 		Uiso   ? 		H 		0.03185
H 1.0  		0.33491768958870444 		0.7650407301992345  0.07114525854804493 		Uiso   ? 		H 		0.10635
H 1.0  		0.8495151596367925 		0.28044950436745514  0.06484124829695233 		Uiso   ? 		H 		0.03177
H 1.0  		0.8443839547133869 		0.7780449504367455  0.0679289267872834 		Uiso   ? 		H 		0.03177
H 1.0  		0.39859817465874225 		0.40239473942487  0.08825614351529625 		Uiso   ? 		H 		0.03185
H 1.0  		0.38708114579664366 		0.8918932181764648  0.09082920892390545 		Uiso   ? 		H 		0.11491
H 1.0  		0.880407361074164 		0.3911080577092944  0.08992863603089221 		Uiso   ? 		H 		0.10635
H 1.0  		0.8894255084293479 		0.8953282952203357  0.09172978181691867 		Uiso   ? 		H 		0.10701
H 1.0  		0.5283263059648806 		0.2755422514476396  0.0896713294900313 		Uiso   ? 		H 		0.10701
H 1.0  		0.5248005697147439 		0.7606242025714006  0.08954267621960084 		Uiso   ? 		H 		0.11421
H 1.0  		0.03411351094871509 		0.2713710864657965  0.09160112854648822 		Uiso   ? 		H 		0.10701
H 1.0  		0.0241191037843147 		0.7677397193051331  0.09160112854648822 		Uiso   ? 		H 		0.10701
H 1.0  		0.1903438789000468 		0.36411816665030916  0.10794009389115676 		Uiso   ? 		H 		0.03130
H 1.0  		0.19338822970741937 		0.8695652173913044  0.1042091490486734 		Uiso   ? 		H 		0.03130
H 1.0  		0.6871065559841667 		0.36828933163215233  0.11154238546320967 		Uiso   ? 		H 		0.03130
H 1.0  		0.6899689648186825 		0.867847678869369  0.11102777238148782 		Uiso   ? 		H 		0.03130
H 1.0  		0.492810158629388 		0.07998822259299246  0.10163608364006418 		Uiso   ? 		H 		0.03130
H 1.0  		0.49247177496419425 		0.5650701737167534  0.10858336024330906 		Uiso   ? 		H 		0.03130
H 1.0  		0.9912769124230733 		0.07311806850525077  0.10459510885996477 		Uiso   ? 		H 		0.03037
H 1.0  		0.9889080797399517 		0.5707135145745412  0.10948393313632229 		Uiso   ? 		H 		0.11421
H 1.0  		0.17202805711142713 		0.36190990283639224  0.07063064546632308 		Uiso   ? 		H 		0.13863
H 1.0  		0.17742507391416096 		0.8644126018254982  0.07281775106364091 		Uiso   ? 		H 		0.03044
H 1.0  		0.6830516474642098 		0.3648542545882815  0.07693465571741566 		Uiso   ? 		H 		0.13864
H 1.0  		0.679997200818931 		0.8649033271174796  0.07603408282440244 		Uiso   ? 		H 		0.13863
H 1.0  		0.1611891104786624 		0.26670919619197175  0.9658001011214705 		Uiso   ? 		H 		0.41426
H 1.0  		0.18510148628856835 		0.7807439395426441  0.9630983824424308 		Uiso   ? 		H 		0.13933
H 1.0  		0.6983559554658555 		0.2887918343311415  0.961168583385974 		Uiso   ? 		H 		0.03385
H 1.0  		0.6639529185760829 		0.7490921582098342  0.9592387843295171 		Uiso   ? 		H 		0.03269
H 1.0  		0.48461236536099533 		0.05594268328589656  0.0751335099313892 		Uiso   ? 		H 		0.03140
H 1.0  		0.4850804412318699 		0.5562371184610855  0.07564812301311105 		Uiso   ? 		H 		0.03056
H 1.0  		0.9823189688788112 		0.048827166552164104  0.07101660527761447 		Uiso   ? 		H 		0.42366
H 1.0  		0.9861345887308605 		0.5626165472568457  0.07860714823301165 		Uiso   ? 		H 		0.39213
H 1.0  		0.33988881677486715 		0.3665717931102169  0.10099281728791187 		Uiso   ? 		H 		0.11390
H 1.0  		0.3290444489211486 		0.8629404259495534  0.1018933901809251 		Uiso   ? 		H 		0.11392
H 1.0  		0.8235317230966133 		0.36362744135832764  0.10099281728791187 		Uiso   ? 		H 		0.11046
H 1.0  		0.8363330265854484 		0.865639415055452  0.10459510885996477 		Uiso   ? 		H 		0.11039
H 1.0  		0.4906988104798484 		0.20708607321621358  0.09944897804274634 		Uiso   ? 		H 		0.40804
H 1.0  		0.49151500923571034 		0.6983020904897439  0.09893436496102449 		Uiso   ? 		H 		0.11394
H 1.0  		0.9962569185660392 		0.21567376582589068  0.10279396307393833 		Uiso   ? 		H 		0.11396
H 1.0  		0.9915395752184855 		0.7051722445774856  0.1012501238287728 		Uiso   ? 		H 		0.11399
H 1.0  		0.34928652780253505 		0.36411816665030916  0.06677104735340925 		Uiso   ? 		H 		0.11039
H 1.0  		0.3466153945336352 		0.8619589753655904  0.06985872584374031 		Uiso   ? 		H 		0.11041
H 1.0  		0.8593203694224125 		0.387182255373442  0.04580056427324411 		Uiso   ? 		H 		0.42286
H 1.0  		0.8470802149608057 		0.8658847777014428  0.06934411276201848 		Uiso   ? 		H 		0.11041
H 1.0  		0.48773970912796105 		0.22794189812542942  0.06677104735340925 		Uiso   ? 		H 		0.11046
H 1.0  		0.4916340206246518 		0.7333889488664246  0.0491455493044361 		Uiso   ? 		H 		0.41207
H 1.0  		0.988644783999527 		0.22892334870939252  0.06574182118996556 		Uiso   ? 		H 		0.03478
H 1.0  		0.9863088206618377 		0.7270095200706645  0.0696014193028794 		Uiso   ? 		H 		0.03522
H 1.0  		0.09814882269860686 		0.12022769653547945  0.10742548080943491 		Uiso   ? 		H 		0.11391
H 1.0  		0.09497817277133574 		0.6153695161448621  0.10974123967718322 		Uiso   ? 		H 		0.03248
H 1.0  		0.5978183023585163 		0.11703798213759938  0.10652490791642169 		Uiso   ? 		H 		0.03224
H 1.0  		0.5980873279718281 		0.6318088134262441  0.10292261634436879 		Uiso   ? 		H 		0.41198
H 1.0  		0.33803787492484766 		0.26597310825399945  0.10266530980350787 		Uiso   ? 		H 		0.03404
H 1.0  		0.3424798465250783 		0.7716655216409855  0.10446645558953432 		Uiso   ? 		H 		0.03474
H 1.0  		0.8397688387631475 		0.26818137206791637  0.10652490791642169 		Uiso   ? 		H 		0.03508
H 1.0  		0.8187091815768854 		0.7436941799980372  0.1012501238287728 		Uiso   ? 		H 		0.02990
H 1.0  		0.31607063402731694 		0.06649327706349986  0.9579522516252125 		Uiso   ? 		H 		0.03139
H 1.0  		0.328330266928511 		0.5397978211797037  0.9569230254617688 		Uiso   ? 		H 		0.03342
H 1.0  		0.8205394114223267 		0.046128177446265586  0.9580809048956429 		Uiso   ? 		H 		0.03458
H 1.0  		0.8240680047883342 		0.5572185690450486  0.9597533974112389 		Uiso   ? 		H 		0.03328
H 1.0  		0.09908687327539292 		0.2500245362645991  0.09880571169059403 		Uiso   ? 		H 		0.03210
H 1.0  		0.09519358470960326 		0.7581705761114929  0.09996359112446819 		Uiso   ? 		H 		0.03500
H 1.0  		0.5974161601714506 		0.26965354794386104  0.10382318923738201 		Uiso   ? 		H 		0.13923
H 1.0  		0.6012794365076788 		0.7571891255275297  0.09841975187930264 		Uiso   ? 		H 		0.13936
H 1.0  		0.21940898289200517 		0.14770831288644617  0.09803379206801127 		Uiso   ? 		H 		0.13934
H 1.0  		0.18772249594330723 		0.6168416920208067  0.1084547069728786 		Uiso   ? 		H 		0.13931
H 1.0  		0.7051457557765841 		0.12685248797723037  0.10536702848254753 		Uiso   ? 		H 		0.13979
H 1.0  		0.7005710085795664 		0.626410835214447  0.10819740043201768 		Uiso   ? 		H 		0.13940
H 1.0  		0.09135022476503028 		0.28044950436745514  0.059051851127581594 		Uiso   ? 		H 		0.13402
H 1.0  		0.09114796077348403 		0.7802532142506626  0.06278279597006496 		Uiso   ? 		H 		0.13359
H 1.0  		0.5908424047440018 		0.28412994405731673  0.05827993150499883 		Uiso   ? 		H 		0.13402
H 1.0  		0.586175525987576 		0.777554225144764  0.05287649414691946 		Uiso   ? 		H 		0.13360
H 1.0  		0.1785312042381147 		0.10845028952792228  0.06934411276201848 		Uiso   ? 		H 		0.10546
H 1.0  		0.18534343707940237 		0.6146334282068898  0.07551946974268059 		Uiso   ? 		H 		0.10668
H 1.0  		0.6822074489728124 		0.1111492786338208  0.07474755012009783 		Uiso   ? 		H 		0.10546
H 1.0  		0.6797728775988265 		0.6077632741191481  0.07603408282440244 		Uiso   ? 		H 		0.10666
H 1.0  		0.39763490012833624 		0.9669741878496418  0.06805758005771387 		Uiso   ? 		H 		0.10679
H 1.0  		0.4049960912882221 		0.4661890273824713  0.05519225301466776 		Uiso   ? 		H 		0.10709
H 1.0  		0.8996769621752623 		0.9706546275395035  0.06895815295072709 		Uiso   ? 		H 		0.10679
H 1.0  		0.9042581858491683 		0.4664343900284621  0.053262453958210845 		Uiso   ? 		H 		0.10709
H 1.0  		0.3964388290480568 		0.21788202963980766  0.10472376213039523 		Uiso   ? 		H 		0.11409
H 1.0  		0.3948148725410682 		0.7186671901069781  0.10459510885996477 		Uiso   ? 		H 		0.11405
H 1.0  		0.8952342762960639 		0.21591912847188147  0.10652490791642169 		Uiso   ? 		H 		0.11410
H 1.0  		0.8829482995352478 		0.7034547060555502  0.10240800326264694 		Uiso   ? 		H 		0.11409
H 1.0  		0.22095788379925813 		0.04710962803022868  0.06111030345446896 		Uiso   ? 		H 		0.11405
H 1.0  		0.23029592698591578 		0.55451957993915  0.07101660527761447 		Uiso   ? 		H 		0.11540
H 1.0  		0.7293593769163336 		0.05373441947197959  0.06471259502652188 		Uiso   ? 		H 		0.11545
H 1.0  		0.733873563684317 		0.555746393169104  0.07346101741579321 		Uiso   ? 		H 		0.11404
H 1.0  		0.36531238686173073 		0.11482971832368243  0.9607826235746826 		Uiso   ? 		H 		0.11542
H 1.0  		0.4104756140895594 		0.6114437138090097  0.9610399301155435 		Uiso   ? 		H 		0.11110
H 1.0  		0.9095237899202406 		0.11360290509372854  0.9602680104929608 		Uiso   ? 		H 		0.11110
H 1.0  		0.911074233044418 		0.6237118461085485  0.9614258899268349 		Uiso   ? 		H 		0.11105
H 1.0  		0.38566323531012975 		0.9706546275395035  0.10034955093575956 		Uiso   ? 		H 		0.11186
H 1.0  		0.3878283754437697 		0.47477671999214843  0.10034955093575956 		Uiso   ? 		H 		0.11106
H 1.0  		0.8844346108355525 		0.9699185396015311  0.10266530980350787 		Uiso   ? 		H 		0.11185
H 1.0  		0.8765622482785767 		0.4701148297183237  0.09803379206801127 		Uiso   ? 		H 		0.11410
H 1.0  		0.2730189499419723 		0.09470998135243891  0.09687591263413711 		Uiso   ? 		H 		0.11410
H 1.0  		0.25168338503847576 		0.5756207674943568  0.1025366565330774 		Uiso   ? 		H 		0.11110
H 1.0  		0.7670692324159466 		0.07900677200902935  0.10395184250781248 		Uiso   ? 		H 		0.11110
H 1.0  		0.7652351068825878 		0.5861713612719599  0.10395184250781248 		Uiso   ? 		H 		0.11105
H 1.0  		0.3479254447250486 		0.32952203356561  0.016338965344668544 		Uiso   ? 		H 		0.11185
H 1.0  		0.3451621798967407 		0.8212287761311219  0.010806874716158724 		Uiso   ? 		H 		0.11106
H 1.0  		0.8562412827596044 		0.32535086858376683  0.017754151319403617 		Uiso   ? 		H 		0.11185
H 1.0  		0.8545034441165829 		0.827608204926882  0.01968395037586053 		Uiso   ? 		H 		0.11105
H 1.0  		0.1198795017012237 		0.32093434095593293  0.02894698584685372 		Uiso   ? 		H 		0.11183
H 1.0  		0.12141002843374588 		0.8212287761311219  0.032420624148476164 		Uiso   ? 		H 		0.11105
H 1.0  		0.6255250990549038 		0.3228972421238591  0.018397417671555918 		Uiso   ? 		H 		0.11188
H 1.0  		0.6212679265434007 		0.8192658749631957  0.02367220175920482 		Uiso   ? 		H 		0.11110
H 1.0  		0.12432629390242941 		0.0986357836882913  0.01299398031347656 		Uiso   ? 		H 		0.11110
H 1.0  		0.12194866359645992 		0.5945136912356463  0.01852607094198638 		Uiso   ? 		H 		0.11409
H 1.0  		0.6278117990414225 		0.09372853076847582  0.02650257370867496 		Uiso   ? 		H 		0.02802
H 1.0  		0.6341573845697711 		0.5977034056335264  0.032034664337184784 		Uiso   ? 		H 		0.02805
H 1.0  		0.367229814006616 		0.038767298066542354  0.9598820506816694 		Uiso   ? 		H 		0.02802
H 1.0  		0.39926728095617203 		0.5567278437530672  0.9587241712477952 		Uiso   ? 		H 		0.02805
H 1.0  		0.8918856447339207 		0.04220237511041319  0.9618118497381263 		Uiso   ? 		H 		0.02802
H 1.0  		0.8922157667461781 		0.5451957993915006  0.9624551160902786 		Uiso   ? 		H 		0.02805
H 1.0  		0.4449657669448206 		0.23333987633722644  0.016724925155959927 		Uiso   ? 		H 		0.02802
H 1.0  		0.44885543614959256 		0.7260280694867014  0.011192834527450105 		Uiso   ? 		H 		0.02805
H 1.0  		0.9526922779075564 		0.22671508489547554  0.007590542955397198 		Uiso   ? 		H 		0.02803
H 1.0  		0.9536621915827617 		0.7360879379723232  0.021485096161886985 		Uiso   ? 		H 		0.02805
H 1.0  		0.44598632352021017 		0.005888703503778585  0.019169337294138684 		Uiso   ? 		H 		0.02802
H 1.0  		0.4424388366934485 		0.49857689665325355  0.02650257370867496 		Uiso   ? 		H 		0.02805
H 1.0  		0.9428393469876901 		0.9996074197664148  0.029718905469436487 		Uiso   ? 		H 		0.10546
H 1.0  		0.9461567483964264 		0.5034841495730691  0.020327216728012836 		Uiso   ? 		H 		0.10670
H 1.0  		0.22299205019604712 		0.965747374619688  0.05647878571897237 		Uiso   ? 		H 		0.11404
H 1.0  		0.22393039274087848 		0.4674158406124252  0.06587047446039603 		Uiso   ? 		H 		0.10546
H 1.0  		0.7353410461739349 		0.9726175287074297  0.07732061552870705 		Uiso   ? 		H 		0.10665
H 1.0  		0.7348970420256447 		0.4710962803022868  0.07307505760450184 		Uiso   ? 		H 		0.10546
H 1.0  		0.08225799573209033 		0.224016095789577  0.9870278907424966 		Uiso   ? 		H 		0.10669
H 1.0  		0.07810175240284323 		0.7282363333006183  0.9935892075344501 		Uiso   ? 		H 		0.11542
H 1.0  		0.5945454083500429 		0.21886348022377075  0.9844548253338874 		Uiso   ? 		H 		0.10546
H 1.0  		0.5795040227868211 		0.7255373441947198  0.9871565440129271 		Uiso   ? 		H 		0.10672
H 1.0  		0.2147377538117059 		0.0002453626459907744  0.02611661389738358 		Uiso   ? 		H 		0.10679
H 1.0  		0.21307213033643724 		0.4988222592992443  0.017882804589834076 		Uiso   ? 		H 		0.10712
H 1.0  		0.7155224700703504 		0.007360879379723231  0.021485096161886985 		Uiso   ? 		H 		0.10679
H 1.0  		0.7175325970695887 		0.5005397978211797  0.023414895218343897 		Uiso   ? 		H 		0.10708
H 1.0  		0.39134052579511713 		0.289282559623123  0.08825614351529625 		Uiso   ? 		H 		0.10679
H 1.0  		0.38617645152627944 		0.7863872804004319  0.08594038464754794 		Uiso   ? 		H 		0.10710
H 1.0  		0.8923266134572838 		0.2883011090391599  0.0883847967857267 		Uiso   ? 		H 		0.10679
H 1.0  		0.8821109184977061 		0.782952203356561  0.09121516873519683 		Uiso   ? 		H 		0.10708
H 1.0  		0.06252819146990787 		0.0642850132495829  0.09391688741423651 		Uiso   ? 		H 		0.11404
H 1.0  		0.06119773792584962 		0.5631072725488272  0.09443150049595836 		Uiso   ? 		H 		0.03151
H 1.0  		0.5617814884080062 		0.06281283737363824  0.09288766125079283 		Uiso   ? 		H 		0.03196
H 1.0  		0.5694284078388756 		0.5719403278044951  0.09095786219433591 		Uiso   ? 		H 		0.03151
H 1.0  		0.2683487437925741 		0.9608401216998724  0.9836829057113047 		Uiso   ? 		H 		0.03198
H 1.0  		0.27695200664100494 		0.45956423594072043  0.980981187032265 		Uiso   ? 		H 		0.03151
H 1.0  		0.7716064846595013 		0.9588772205319462  0.9871565440129271 		Uiso   ? 		H 		0.03201
H 1.0  		0.7743280825195291 		0.4649622141525175  0.9853553982269007 		Uiso   ? 		H 		0.11540
H 1.0  		0.4158597425885835 		0.2698989105898518  0.0877415304335744 		Uiso   ? 		H 		0.03151
H 1.0  		0.40852909962817047 		0.7647953675532437  0.08516846502496517 		Uiso   ? 		H 		0.03198
H 1.0  		0.9108127714889633 		0.2645009323780548  0.08581173137711748 		Uiso   ? 		H 		0.03151
H 1.0  		0.9064833838097074 		0.764550004907253  0.0896713294900313 		Uiso   ? 		H 		0.03190
H 1.0  		0.48224955451880613 		0.09839042104230053  0.9838115589817351 		Uiso   ? 		H 		0.03151
H 1.0  		0.48575823149315855 		0.5996663068014526  0.9853553982269007 		Uiso   ? 		H 		0.03195
H 1.0  		0.9803964124810174 		0.08833055255667878  0.985741358038192 		Uiso   ? 		H 		0.13286
H 1.0  		0.9822139656995814 		0.5913239768377663  0.985741358038192 		Uiso   ? 		H 		0.13278
H 1.0  		0.08508464578026956 		0.15359701639022477  0.982653679547861 		Uiso   ? 		H 		0.13286
H 1.0  		0.0764901805546866 		0.6565904406713123  0.989343649610245 		Uiso   ? 		H 		0.13279
H 1.0  		0.584278680504392 		0.1464814996564923  0.985741358038192 		Uiso   ? 		H 		0.13286
H 1.0  		0.5929111933372373 		0.6465305721856904  0.984326172063457 		Uiso   ? 		H 		0.13279
H 1.0  		0.21623713172477663 		0.3700068701540878  0.9901155692328276 		Uiso   ? 		H 		0.13289
H 1.0  		0.20821855365624692 		0.8609775247816273  0.991016142125841 		Uiso   ? 		H 		0.13299
H 1.0  		0.7217424540738799 		0.36828933163215233  0.9865132776607748 		Uiso   ? 		H 		0.13289
H 1.0  		0.7225257834843097 		0.8590146236137011  0.9818817599252782 		Uiso   ? 		H 		0.13299
H 1.0  		0.2532841790947922 		0.9770340563352636  0.10073551074705095 		Uiso   ? 		H 		0.13289
H 1.0  		0.250296769355436 		0.47085091765629605  0.10227934999221648 		Uiso   ? 		H 		0.13299
H 1.0  		0.7433587316544406 		0.973353616645402  0.1107704658406269 		Uiso   ? 		H 		0.11404
H 1.0  		0.7488579758544887 		0.47649425851408383  0.10755413407986537 		Uiso   ? 		H 		0.13362
H 1.0  		0.20206476297953785 		0.951516341152223  0.08684095754056116 		Uiso   ? 		H 		0.13392
H 1.0  		0.18795980444222238 		0.43797232309353223  0.09378823414380605 		Uiso   ? 		H 		0.13363
H 1.0  		0.6902005111196768 		0.9426832858965553  0.09623264628198482 		Uiso   ? 		H 		0.13393
H 1.0  		0.69386835655936 		0.44386102659731086  0.0943028472255279 		Uiso   ? 		H 		0.13363
H 1.0  		0.20695344881716432 		0.05692413386985966  0.09584668647069343 		Uiso   ? 		H 		0.11541
H 1.0  		0.19047460967777424 		0.543723623515556  0.09378823414380605 		Uiso   ? 		H 		0.13393
H 1.0  		0.7048725425073096 		0.049808617136127206  0.09314496779165375 		Uiso   ? 		H 		0.13402
H 1.0  		0.700288997687444 		0.5476494258514085  0.09932032477231588 		Uiso   ? 		H 		0.13360
H 1.0  		0.411240260673325 		0.938512120914712  0.0896713294900313 		Uiso   ? 		H 		0.03178
H 1.0  		0.41476367577750234 		0.44705074099519093  0.08658365099970025 		Uiso   ? 		H 		0.03179
H 1.0  		0.9140994140641369 		0.9417018353125921  0.09044324911261406 		Uiso   ? 		H 		0.03039
H 1.0  		0.9079070564941419 		0.43208361958975366  0.09314496779165375 		Uiso   ? 		H 		0.03040
H 1.0  		0.39773136532772974 		0.2213171066836785  0.06741431370556156 		Uiso   ? 		H 		0.03045
H 1.0  		0.38651663705140926 		0.7105702227892826  0.0702446856550317 		Uiso   ? 		H 		0.13934
H 1.0  		0.8860226625721819 		0.21322013936598294  0.07230313798191908 		Uiso   ? 		H 		0.13933
H 1.0  		0.8978712420044732 		0.7248012562567476  0.06741431370556156 		Uiso   ? 		H 		0.10635
H 1.0  		0.18383185281655598 		0.07655314554912161  0.0972618724454285 		Uiso   ? 		H 		0.10635
H 1.0  		0.1674187523680302 		0.5643340857787811  0.09314496779165375 		Uiso   ? 		H 		0.41443
H 1.0  		0.6760201883306924 		0.06477573854156445  0.09636129955241528 		Uiso   ? 		H 		0.11421
H 1.0  		0.6764313231335506 		0.5658062616547257  0.10047820420619002 		Uiso   ? 		H 		0.10701
H 1.0  		0.0758472398078225 		0.28216704288939054  0.08787018370400486 		Uiso   ? 		H 		0.10701
H 1.0  		0.0643348532376426 		0.7844243792325057  0.09121516873519683 		Uiso   ? 		H 		0.11492
H 1.0  		0.5689582381400197 		0.2905093728530769  0.08684095754056116 		Uiso   ? 		H 		0.11491
H 1.0  		0.5629835490041846 		0.7834429286485426  0.08568307810668702 		Uiso   ? 		H 		0.11422
H 1.0  		0.3621013358562042 		0.027235253704975957  0.09391688741423651 		Uiso   ? 		H 		0.41439
H 1.0  		0.41600121883311747 		0.5464226126214545  0.09211574162821005 		Uiso   ? 		H 		0.11421
H 1.0  		0.894987342236344 		0.03140641868681912  0.09507476684811066 		Uiso   ? 		H 		0.11165
H 1.0  		0.881446340833206 		0.5287565021101187  0.09533207338897158 		Uiso   ? 		H 		0.11165
H 1.0  		0.40231952011448047 		0.1629207969378742  0.09044324911261406 		Uiso   ? 		H 		0.11069
H 1.0  		0.4089586086057592 		0.6649327706349986  0.0896713294900313 		Uiso   ? 		H 		0.11069
H 1.0  		0.9247355930604776 		0.12022769653547945  0.09057190238304452 		Uiso   ? 		H 		0.11491
H 1.0  		0.9046171678599515 		0.6668956718029247  0.09314496779165375 		Uiso   ? 		H 		0.11491
H 1.0  		0.3382798257156816 		0.09986259691824517  0.08645499772926979 		Uiso   ? 		H 		0.41436
H 1.0  		0.29714931847911685 		0.5564824811070762  0.09327362106208421 		Uiso   ? 		H 		0.11165
H 1.0  		0.7974719483827857 		0.03484149573068996  0.0955893799298325 		Uiso   ? 		H 		0.11165
H 1.0  		0.7964484377164245 		0.5461772499754638  0.09391688741423651 		Uiso   ? 		H 		0.11069
H 1.0  		0.16178210592042183 		0.23432132692118954  0.09597533974112389 		Uiso   ? 		H 		0.11069
H 1.0  		0.21833145292356548 		0.802581215035823  0.09018594257175314 		Uiso   ? 		H 		0.11069
H 1.0  		0.7187948447928005 		0.30842084601040337  0.0896713294900313 		Uiso   ? 		H 		0.11491
H 1.0  		0.6999711633589178 		0.7522818726077142  0.08581173137711748 		Uiso   ? 		H 		0.11069
H 1.0  		0.29037066926222915 		0.2998331534007263  0.09224439489864052 		Uiso   ? 		H 		0.41427
H 1.0  		0.283357114026341 		0.7677397193051331  0.09301631452122329 		Uiso   ? 		H 		0.11165
H 1.0  		0.7929950949430968 		0.2868289331632153  0.0943028472255279 		Uiso   ? 		H 		0.11165
H 1.0  		0.7914257583581654 		0.7804985768966534  0.09481746030724975 		Uiso   ? 		H 		0.03205
H 1.0  		0.18029368289866557 		0.16807341250368046  0.09353092760294512 		Uiso   ? 		H 		0.03205
H 1.0  		0.1662554859831156 		0.6691039356168417  0.09481746030724975 		Uiso   ? 		H 		0.03204
H 1.0  		0.6517066119306665 		0.17764255569732065  0.09468880703681928 		Uiso   ? 		H 		0.41436
H 1.0  		0.6910668658147334 		0.673275100598685  0.09275900798036237 		Uiso   ? 		H 		0.03204
H 1.0  		0.48259913828676265 		0.16071253312395722  0.980981187032265 		Uiso   ? 		H 		0.03204
H 1.0  		0.48503656677661944 		0.6602708803611739  0.9847121318747484 		Uiso   ? 		H 		0.11421
H 1.0  		0.9869586758376581 		0.15457846697418787  0.9835542524408741 		Uiso   ? 		H 		0.03037
H 1.0  		0.9847171652053361 		0.6651781332809893  0.9877998103650794 		Uiso   ? 		H 		0.03204
H 1.0  		0.09066535740687445 		0.10526057513004221  0.07268909779321045 		Uiso   ? 		H 		0.10635
H 1.0  		0.0928597475249289 		0.6107076258710374  0.07642004263569382 		Uiso   ? 		H 		0.10635
H 1.0  		0.5894608046548816 		0.10329767396211602  0.06715700716470063 		Uiso   ? 		H 		0.03185
H 1.0  		0.590539958174201 		0.5984394935714987  0.06278279597006496 		Uiso   ? 		H 		0.10635
H 1.0  		0.3077924285883022 		0.18083227009520073  0.037824061506555526 		Uiso   ? 		H 		0.03177
H 1.0  		0.3059254337095113 		0.6875061340661498  0.03177735779632386 		Uiso   ? 		H 		0.03177
H 1.0  		0.803477380711038 		0.18794778682893318  0.034993689557085386 		Uiso   ? 		H 		0.03185
H 1.0  		0.809715560580242 		0.6887329472961037  0.03666618207268137 		Uiso   ? 		H 		0.11491
H 1.0  		0.34173471070593353 		0.9699185396015311  0.9834255991704437 		Uiso   ? 		H 		0.10635
H 1.0  		0.3475075414772567 		0.46128177446265584  0.9850980916860397 		Uiso   ? 		H 		0.10701
H 1.0  		0.8413907504510765 		0.9522524290901954  0.9923026748301456 		Uiso   ? 		H 		0.10701
H 1.0  		0.8389491666302905 		0.46373540092256355  0.9892149963398145 		Uiso   ? 		H 		0.11421
H 1.0  		0.25936392041877854 		0.9075964275198745  0.036408875531820456 		Uiso   ? 		H 		0.10701
H 1.0  		0.2541312503432058 		0.40754735499067624  0.036280222261389994 		Uiso   ? 		H 		0.10701
H 1.0  		0.760052349787086 		0.9196191971734224  0.04001116710387336 		Uiso   ? 		H 		0.03130
H 1.0  		0.7644539526340949 		0.41588968495436257  0.040139820374303824 		Uiso   ? 		H 		0.03130
H 1.0  		0.03785672064006718 		0.13691235646285213  0.037695408236125064 		Uiso   ? 		H 		0.03130
H 1.0  		0.04172463926821418 		0.6372067916380411  0.03833867458827737 		Uiso   ? 		H 		0.03130
H 1.0  		0.5351013191368625 		0.14034743350672294  0.039882513833442906 		Uiso   ? 		H 		0.03130
H 1.0  		0.5339416887968538 		0.6369614289920503  0.03808136804741645 		Uiso   ? 		H 		0.03130
H 1.0  		0.16824197921183762 		0.2213171066836785  0.9588528245182257 		Uiso   ? 		H 		0.03037
H 1.0  		0.14854939461896088 		0.7029639807635687  0.9639989553354441 		Uiso   ? 		H 		0.11421
H 1.0  		0.6677929344437954 		0.2068407105702228  0.9624551160902786 		Uiso   ? 		H 		0.13863
H 1.0  		0.6929950384264252 		0.6941309255079008  0.9600107039520998 		Uiso   ? 		H 		0.03044
H 1.0  		0.26354535537661206 		0.13568554323289825  0.03537964936837677 		Uiso   ? 		H 		0.13864
H 1.0  		0.26211861494221667 		0.639415055451958  0.03705214188397276 		Uiso   ? 		H 		0.13863
H 1.0  		0.7537032418728207 		0.13642163117087058  0.0356369559092377 		Uiso   ? 		H 		0.41426
H 1.0  		0.76324497760896 		0.6421140445578566  0.041169046537747514 		Uiso   ? 		H 		0.13933
O 1.0  		0.35718497457612125 		0.10452448719206989  0.41863774198072 		Uiso   ? 		O 		-0.97332
O 1.0  		0.3546365210661023 		0.6026106585533418  0.4178658223581373 		Uiso   ? 		O 		-0.97351
O 1.0  		0.8537985790328165 		0.10329767396211602  0.41825178216942865 		Uiso   ? 		O 		-1.12392
O 1.0  		0.8579687982467419 		0.6033467464913143  0.41709390273555447 		Uiso   ? 		O 		-0.97464
O 1.0  		0.17287973832672596 		0.23186770046128177  0.4185090887102896 		Uiso   ? 		O 		-0.97358
O 1.0  		0.17732818640384512 		0.7328982235744431  0.41336295789307115 		Uiso   ? 		O 		-0.97598
O 1.0  		0.6683082121628928 		0.23039552458533713  0.4174798625468459 		Uiso   ? 		O 		-0.95788
O 1.0  		0.675324137553662 		0.7348611247423693  0.4206961943076074 		Uiso   ? 		O 		-0.91942
O 1.0  		0.27091321800633084 		0.28216704288939054  0.43793573254528917 		Uiso   ? 		O 		-0.56854
O 1.0  		0.27323676436015465 		0.7831975660025519  0.43073114940118334 		Uiso   ? 		O 		-0.59545
O 1.0  		0.769750332222618 		0.28241240553538133  0.43291825499850123 		Uiso   ? 		O 		-0.59668
O 1.0  		0.7729983755794723 		0.7861419177544412  0.4366491998409846 		Uiso   ? 		O 		-0.56447
O 1.0  		0.2285971255132816 		0.2880557463931691  0.4185090887102896 		Uiso   ? 		O 		-0.56220
O 1.0  		0.23645421397052105 		0.7908038080282658  0.41066123921403147 		Uiso   ? 		O 		-0.56216
O 1.0  		0.7261592986955916 		0.2883011090391599  0.4177371690877068 		Uiso   ? 		O 		-0.56871
O 1.0  		0.728892551294338 		0.7922759839042105  0.4210821541188988 		Uiso   ? 		O 		-0.56910
O 1.0  		0.23046457502802853 		0.23186770046128177  0.4204388877667464 		Uiso   ? 		O 		-0.56804
O 1.0  		0.2333686508308245 		0.7336343115124154  0.4149067971382367 		Uiso   ? 		O 		-1.11899
O 1.0  		0.7253870557289355 		0.23235842575326332  0.4176085158172763 		Uiso   ? 		O 		-0.56452
O 1.0  		0.731307660912625 		0.7363333006183139  0.42185407374148154 		Uiso   ? 		O 		-0.59596
O 1.0  		0.17137703302068286 		0.23481205221317109  0.4766603669448579 		Uiso   ? 		O 		-0.59474
O 1.0  		0.1823163895496802 		0.7407498282461479  0.47228615575022226 		Uiso   ? 		O 		-0.60596
O 1.0  		0.678310524362117 		0.22745117283344787  0.4774322865674407 		Uiso   ? 		O 		-0.60576
O 1.0  		0.6767152818696316 		0.7397683776621848  0.47897612581260623 		Uiso   ? 		O 		-0.54353
O 1.0  		0.22149513941295845 		0.2883011090391599  0.47704632675614933 		Uiso   ? 		O 		-0.55376
O 1.0  		0.23563944377259455 		0.7976739621160075  0.47280076883194405 		Uiso   ? 		O 		-0.56331
O 1.0  		0.7295984872751848 		0.28412994405731673  0.4775609398378712 		Uiso   ? 		O 		-0.56947
O 1.0  		0.7270940218794052 		0.7908038080282658  0.4785901660013149 		Uiso   ? 		O 		-0.56619
O 1.0  		0.22557962221040873 		0.23824712925704192  0.4785901660013149 		Uiso   ? 		O 		-0.55223
O 1.0  		0.23549819484603854 		0.7463931691039356  0.4726721155615136 		Uiso   ? 		O 		-1.09612
O 1.0  		0.733371871864009 		0.2326037883992541  0.47627440713356656 		Uiso   ? 		O 		-0.56374
O 1.0  		0.7299276353654627 		0.739523015016194  0.4791047790830367 		Uiso   ? 		O 		-0.60541
O 1.0  		0.1166410839051741 		0.18058690744920994  0.4664967585808515 		Uiso   ? 		O 		-0.60655
O 1.0  		0.12554534912432488 		0.686279320836196  0.4644383062539641 		Uiso   ? 		O 		-0.58017
O 1.0  		0.619938170594422 		0.17445284129944058  0.4676546380147256 		Uiso   ? 		O 		-0.58231
O 1.0  		0.6179244242341659 		0.6821081558543527  0.4671400249330038 		Uiso   ? 		O 		-0.58341
O 1.0  		0.11563654803352229 		0.22745117283344787  0.4312457624829052 		Uiso   ? 		O 		-0.58303
O 1.0  		0.1213928064900508 		0.7289724212385907  0.42700020455869997 		Uiso   ? 		O 		-0.58188
O 1.0  		0.6139588714917018 		0.22794189812542942  0.43510536059581906 		Uiso   ? 		O 		-0.59447
O 1.0  		0.6157852223331136 		0.7326528609284524  0.4324036419167794 		Uiso   ? 		O 		-0.58184
O 1.0  		0.23245470430165632 		0.17592501717538522  0.43471940078452764 		Uiso   ? 		O 		-0.57922
O 1.0  		0.23521202862298707 		0.678673078810482  0.4321463353759184 		Uiso   ? 		O 		-0.58115
O 1.0  		0.7288493421091337 		0.17936009421925608  0.43008788304903106 		Uiso   ? 		O 		-1.09728
O 1.0  		0.7327501300827128 		0.6801452546864265  0.43780707927485873 		Uiso   ? 		O 		-0.58082
O 1.0  		0.2765750560825255 		0.3444891549710472  0.4671400249330038 		Uiso   ? 		O 		-0.58119
O 1.0  		0.29256603330226294 		0.8528805574639318  0.45646180348727555 		Uiso   ? 		O 		-0.57614
O 1.0  		0.7856927113612309 		0.3427716164491118  0.4644383062539641 		Uiso   ? 		O 		-0.57942
O 1.0  		0.7847326182397746 		0.8487093924820887  0.46701137166257334 		Uiso   ? 		O 		-0.91981
O 1.0  		0.22468578706584016 		0.3422808911571303  0.4636663866313814 		Uiso   ? 		O 		-0.91758
O 1.0  		0.23385300704844839 		0.8518991068799686  0.45607584367598414 		Uiso   ? 		O 		-0.92220
O 1.0  		0.7319632459613327 		0.33688291294533323  0.46906982398946073 		Uiso   ? 		O 		-0.90762
O 1.0  		0.7267709446389816 		0.8462557660221808  0.46456695952439464 		Uiso   ? 		O 		-0.92012
O 1.0  		0.1132181433472967 		0.22941407400137406  0.4626371604679377 		Uiso   ? 		O 		-0.55228
O 1.0  		0.12091320622333462 		0.7360879379723232  0.4576196829211497 		Uiso   ? 		O 		-0.59170
O 1.0  		0.6194090796585573 		0.2252429090195309  0.46559618568783834 		Uiso   ? 		O 		-0.91298
O 1.0  		0.6159166997148424 		0.7346157620963786  0.4650815726061165 		Uiso   ? 		O 		-0.58586
O 1.0  		0.22876135858145355 		0.1778879183433114  0.46842655763730845 		Uiso   ? 		O 		-0.59088
O 1.0  		0.23623513366231408 		0.6828442437923251  0.46315177354965953 		Uiso   ? 		O 		-1.12709
O 1.0  		0.730325654546633 		0.1712631269015605  0.4607073614114808 		Uiso   ? 		O 		-0.58845
O 1.0  		0.7299484120201083 		0.6843164196682698  0.46932713053032166 		Uiso   ? 		O 		-0.59292
O 1.0  		0.466548493226015 		0.16218470899990187  0.4671400249330038 		Uiso   ? 		O 		-0.60540
O 1.0  		0.47173301985641924 		0.6646874079890078  0.4628944670087986 		Uiso   ? 		O 		-0.59609
O 1.0  		0.962051503375894 		0.16341152222985575  0.46598214549912964 		Uiso   ? 		O 		-0.59182
O 1.0  		0.975527302058079 		0.6548729021493769  0.45826294927330197 		Uiso   ? 		O 		-0.58769
O 1.0  		0.3704477637999534 		0.9988713318284425  0.4644383062539641 		Uiso   ? 		O 		-0.55222
O 1.0  		0.3614624857902019 		0.49514181960938264  0.4646956127948251 		Uiso   ? 		O 		-0.60584
O 1.0  		0.8649452641562014 		0.9993620571204241  0.4685552109077389 		Uiso   ? 		O 		-0.59609
O 1.0  		0.8591538152082812 		0.4909706546275395  0.4626371604679377 		Uiso   ? 		O 		-0.58791
O 1.0  		0.1770980196518644 		0.19015605064285016  0.4639236931722423 		Uiso   ? 		O 		-0.56520
O 1.0  		0.18737583394128887 		0.6973206399057809  0.46032140160018936 		Uiso   ? 		O 		-0.54567
O 1.0  		0.6818015247568182 		0.185984885661007  0.4612219744932026 		Uiso   ? 		O 		-0.56995
O 1.0  		0.6804909876044152 		0.6946216507998823  0.4652102258765469 		Uiso   ? 		O 		-0.55884
O 1.0  		0.30051999258593026 		0.09446461870644814  0.46804059782601704 		Uiso   ? 		O 		-0.55496
O 1.0  		0.3033101862526933 		0.5977034056335264  0.46675406512171247 		Uiso   ? 		O 		-0.54469
O 1.0  		0.801122766871718 		0.09569143193640202  0.46919847725989117 		Uiso   ? 		O 		-0.54282
O 1.0  		0.8119241695420982 		0.6043281970752773  0.4668827183921429 		Uiso   ? 		O 		-0.58949
O 1.0  		0.3623467443828876 		0.9937187162626362  0.4321463353759184 		Uiso   ? 		O 		-0.58833
O 1.0  		0.3579705114735214 		0.4890077534596134  0.43407613443237536 		Uiso   ? 		O 		-0.55222
O 1.0  		0.8641170540435081 		0.99175581509471  0.43497670732538857 		Uiso   ? 		O 		-1.10355
O 1.0  		0.8539466454132281 		0.48778094022965945  0.4299592297786006 		Uiso   ? 		O 		-1.11639
O 1.0  		0.2963206537304677 		0.09839042104230053  0.43767842600442824 		Uiso   ? 		O 		-1.11954
O 1.0  		0.301121866984493 		0.6031013838453235  0.4348480540549581 		Uiso   ? 		O 		-1.12527
O 1.0  		0.7938587551901933 		0.09986259691824517  0.43767842600442824 		Uiso   ? 		O 		-0.59307
O 1.0  		0.8023621117872695 		0.6043281970752773  0.4356199736775409 		Uiso   ? 		O 		-1.12708
O 1.0  		0.13677449123739138 		0.2591029541662578  0.4098893195914487 		Uiso   ? 		O 		-1.12760
O 1.0  		0.1410192467650289 		0.7618510158013545  0.40551510839681304 		Uiso   ? 		O 		-0.79092
O 1.0  		0.6316159591476976 		0.2615565806261655  0.41400622424522343 		Uiso   ? 		O 		-0.56753
O 1.0  		0.6391050083282945 		0.76356855432329  0.40924605323929636 		Uiso   ? 		O 		-0.74304
O 1.0  		0.201713523335668 		0.1658651486897635  0.41130450556618375 		Uiso   ? 		O 		-0.75101
O 1.0  		0.2030074881732764 		0.6673863970949063  0.410532585943601 		Uiso   ? 		O 		-0.83617
O 1.0  		0.6945921151038805 		0.16439297281381884  0.4097606663210182 		Uiso   ? 		O 		-0.82744
O 1.0  		0.7005455896330021 		0.6688585729708509  0.4158073700312499 		Uiso   ? 		O 		-0.71793
O 1.0  		0.2801299609831214 		0.32142506624791445  0.4902976136104868 		Uiso   ? 		O 		-0.55212
O 1.0  		0.2979106699949437 		0.8295711060948081  0.4791047790830367 		Uiso   ? 		O 		-1.12153
O 1.0  		0.7918127724295174 		0.3167631759740897  0.4854087893341293 		Uiso   ? 		O 		-0.55225
O 1.0  		0.786988510383809 		0.8268721169889097  0.4909408799626391 		Uiso   ? 		O 		-0.55239
O 1.0  		0.13673514541507067 		0.2632741191481009  0.4832216837368114 		Uiso   ? 		O 		-0.95808
O 1.0  		0.14594171121999958 		0.7687211698890961  0.47820420619002346 		Uiso   ? 		O 		-0.88446
O 1.0  		0.642367302853984 		0.25076062420257145  0.4892683874470431 		Uiso   ? 		O 		-0.56806
O 1.0  		0.6426363284672958 		0.7655314554912162  0.486438015497573 		Uiso   ? 		O 		-0.94925
O 1.0  		0.2772781516313894 		0.23284915104524487  0.46919847725989117 		Uiso   ? 		O 		-0.97459
O 1.0  		0.29046508964256296 		0.7390322897242124  0.46147928103406355 		Uiso   ? 		O 		-0.97348
O 1.0  		0.7848931016040517 		0.23407596427519875  0.4609646679523417 		Uiso   ? 		O 		-1.13799
O 1.0  		0.7841695703775093 		0.7387869270782217  0.46906982398946073 		Uiso   ? 		O 		-0.98200
O 1.0  		0.20023073442128006 		0.17862400628128375  0.48978300052876494 		Uiso   ? 		O 		-0.98194
O 1.0  		0.21377043760935974 		0.688487584650113  0.4855374426045597 		Uiso   ? 		O 		-0.98200
O 1.0  		0.7084391667966915 		0.1712631269015605  0.48476552298197695 		Uiso   ? 		O 		-0.98194
O 1.0  		0.6986618920965394 		0.6803906173324173  0.4896543472583345 		Uiso   ? 		O 		-0.98200
O 1.0  		0.4338995430009796 		0.1648836981058004  0.4842509099002551 		Uiso   ? 		O 		-0.98194
O 1.0  		0.44192513351630913 		0.65904406713122  0.486180708956712 		Uiso   ? 		O 		-0.61067
O 1.0  		0.9318954941507966 		0.16684659927372658  0.486438015497573 		Uiso   ? 		O 		-0.61064
O 1.0  		0.9508062269001007 		0.6585533418392385  0.4801340052464804 		Uiso   ? 		O 		-0.98200
O 1.0  		0.40546692625712405 		0.0306703307488468  0.48399360335939423 		Uiso   ? 		O 		-0.98194
O 1.0  		0.3973520612982572 		0.5265482382962018  0.48296437719595053 		Uiso   ? 		O 		-0.98193
O 1.0  		0.8990815965786216 		0.0306703307488468  0.4863093622271425 		Uiso   ? 		O 		-0.98194
O 1.0  		0.8906533122651694 		0.518696633624497  0.48412225662982467 		Uiso   ? 		O 		-0.61071
O 1.0  		0.17714811094099173 		0.28290313082736285  0.46109332122277213 		Uiso   ? 		O 		-0.98193
O 1.0  		0.1839515461594315 		0.787368730984395  0.4547893109716796 		Uiso   ? 		O 		-0.98194
O 1.0  		0.6816543999733524 		0.27578761409363045  0.4636663866313814 		Uiso   ? 		O 		-0.98193
O 1.0  		0.6782846997885185 		0.7854058298164688  0.4626371604679377 		Uiso   ? 		O 		-0.61064
O 1.0  		0.3004426481652689 		0.06158602414368437  0.486438015497573 		Uiso   ? 		O 		-0.98194
O 1.0  		0.29953069848898123 		0.5650701737167534  0.48605205568628157 		Uiso   ? 		O 		-0.60771
O 1.0  		0.7958711220014358 		0.060113848267739724  0.4863093622271425 		Uiso   ? 		O 		-0.60751
O 1.0  		0.8061095904685395 		0.5714496025125135  0.48708128184972527 		Uiso   ? 		O 		-0.60771
O 1.0  		0.38974448768970854 		0.013249582883501816  0.4091173999688659 		Uiso   ? 		O 		-1.13805
O 1.0  		0.3880788642144398 		0.5118264795367553  0.4111758522957533 		Uiso   ? 		O 		-0.60751
O 1.0  		0.8871094447994256 		0.010550593777603298  0.41066123921403147 		Uiso   ? 		O 		-0.60747
O 1.0  		0.881649546421698 		0.5032387869270784  0.40770221399413087 		Uiso   ? 		O 		-0.60778
O 1.0  		0.2887996768013843 		0.07017371675336147  0.41400622424522343 		Uiso   ? 		O 		-0.60747
O 1.0  		0.2877474521205199 		0.5699774266365689  0.4134916111635016 		Uiso   ? 		O 		-1.13812
O 1.0  		0.7885372162981175 		0.07434488173520463  0.41413487751565387 		Uiso   ? 		O 		-0.60778
O 1.0  		0.7918903441681568 		0.5748846795563843  0.4125910382704883 		Uiso   ? 		O 		-0.60747
O 1.0  		0.31888002980676744 		0.3305034841495731  0.4546606577012491 		Uiso   ? 		O 		-0.60777
O 1.0  		0.3296550396086039 		0.8339876337226422  0.4388363054383024 		Uiso   ? 		O 		-0.60747
O 1.0  		0.8228585751272434 		0.33295711060948086  0.44359647644422945 		Uiso   ? 		O 		-0.60777
O 1.0  		0.8243650301371812 		0.8344783590146236  0.4509297128587657 		Uiso   ? 		O 		-0.60771
O 1.0  		0.12818556089175118 		0.28314849347335364  0.4443683960668122 		Uiso   ? 		O 		-0.60751
O 1.0  		0.136656048143395 		0.7871233683384042  0.4381930390861501 		Uiso   ? 		O 		-0.61064
O 1.0  		0.6314433017586785 		0.28118559230542745  0.4511870193996267 		Uiso   ? 		O 		-0.60770
O 1.0  		0.6290855878443641 		0.7868780056924134  0.44668415493456054 		Uiso   ? 		O 		-0.60751
O 1.0  		0.1760082019996937 		0.13740308175483368  0.4511870193996267 		Uiso   ? 		O 		-0.60031
O 1.0  		0.18181492504735022 		0.6428501324958289  0.44822799417972603 		Uiso   ? 		O 		-0.61072
O 1.0  		0.6778289762514422 		0.13936598292275984  0.4430818633625076 		Uiso   ? 		O 		-1.13805
O 1.0  		0.6791317387118985 		0.6426047698498382  0.4536314315378054 		Uiso   ? 		O 		-0.60031
O 1.0  		0.449440526556528 		0.2002159191284719  0.448485300720587 		Uiso   ? 		O 		-0.60043
O 1.0  		0.4532843734620907 		0.7017371675336147  0.44655550166413005 		Uiso   ? 		O 		-0.59946
O 1.0  		0.9459643205997748 		0.19923446854450882  0.44694146147542146 		Uiso   ? 		O 		-0.60043
O 1.0  		0.9588859827015314 		0.6951123760918638  0.44359647644422945 		Uiso   ? 		O 		-0.59945
O 1.0  		0.421079151058446 		0.014721758759446462  0.44282455682164673 		Uiso   ? 		O 		-1.13812
O 1.0  		0.41265318789095307 		0.5091274904308569  0.4474560745571433 		Uiso   ? 		O 		-0.60043
O 1.0  		0.9182404156186812 		0.013740308175483365  0.45311681845608354 		Uiso   ? 		O 		-0.59947
O 1.0  		0.9087080134753012 		0.49955834723721665  0.4453976222302559 		Uiso   ? 		O 		-0.60043
O 1.0  		0.11759612910767728 		0.17739719305132987  0.43201768210548797 		Uiso   ? 		O 		-0.59944
O 1.0  		0.117238316011818 		0.676464814996565  0.4316317222941966 		Uiso   ? 		O 		-0.60031
O 1.0  		0.6161309427381862 		0.1778879183433114  0.4335615213506535 		Uiso   ? 		O 		-0.60031
O 1.0  		0.6144981886083498 		0.6769555402885465  0.4348480540549581 		Uiso   ? 		O 		-0.61068
O 1.0  		0.2641896756724898 		0.04220237511041319  0.4529881651856531 		Uiso   ? 		O 		-0.58722
O 1.0  		0.26437304620328195 		0.5461772499754638  0.4495145268840307 		Uiso   ? 		O 		-0.58719
O 1.0  		0.765438718098114 		0.045146726862302484  0.4527308586447922 		Uiso   ? 		O 		-0.58723
O 1.0  		0.7681566965971242 		0.5520659534792424  0.45170163248134854 		Uiso   ? 		O 		-0.58720
O 1.0  		0.2692579176869464 		0.0004907252919815488  0.4473274212867128 		Uiso   ? 		O 		-1.13805
O 1.0  		0.2640456999729401 		0.5000490725291982  0.445140315689395 		Uiso   ? 		O 		-0.58723
O 1.0  		0.7660928099388192 		0.0009814505839630975  0.4491285670727393 		Uiso   ? 		O 		-0.58720
O 1.0  		0.7685654289200675 		0.5074099519089215  0.44899991380230886 		Uiso   ? 		O 		-0.61069
O 1.0  		0.46439525079021726 		0.06183138678967515  0.44256725028078575 		Uiso   ? 		O 		-0.61069
O 1.0  		0.4576363396559284 		0.555746393169104  0.4461695418528387 		Uiso   ? 		O 		-0.58722
O 1.0  		0.9618018748682141 		0.0613406614976936  0.4497718334248916 		Uiso   ? 		O 		-0.58719
O 1.0  		0.9538379167217417 		0.5451957993915006  0.44282455682164673 		Uiso   ? 		O 		-1.13813
O 1.0  		0.2673425520450089 		0.2843753067033075  0.46559618568783834 		Uiso   ? 		O 		-0.58723
O 1.0  		0.28001469929807465 		0.7908038080282658  0.45723372310985827 		Uiso   ? 		O 		-0.58720
O 1.0  		0.7750625865308562 		0.28241240553538133  0.459935441788898 		Uiso   ? 		O 		-0.58723
O 1.0  		0.77300717320232 		0.7878594562763765  0.4640523464426728 		Uiso   ? 		O 		-0.58720
O 1.0  		0.40166078598185667 		0.19432721562469332  0.44668415493456054 		Uiso   ? 		O 		-0.61071
O 1.0  		0.4050796525427603 		0.6958484640298361  0.4460408885824082 		Uiso   ? 		O 		-0.58704
O 1.0  		0.898004959198206 		0.19383649033271177  0.4444970493372427 		Uiso   ? 		O 		-0.58710
O 1.0  		0.913568634927325 		0.6958484640298361  0.4460408885824082 		Uiso   ? 		O 		-0.58704
O 1.0  		0.1315496125376534 		0.1398567082147414  0.45183028575177897 		Uiso   ? 		O 		-0.58711
O 1.0  		0.13643183858227953 		0.6426047698498382  0.44964318015446114 		Uiso   ? 		O 		-0.58704
O 1.0  		0.6310635430932499 		0.135930905878889  0.44758472782757375 		Uiso   ? 		O 		-0.58710
O 1.0  		0.631246913624042 		0.6399057807439397  0.45170163248134854 		Uiso   ? 		O 		-0.58704
O 1.0  		0.17438671262268718 		0.3305034841495731  0.4444970493372427 		Uiso   ? 		O 		-0.58710
O 1.0  		0.1802985201835287 		0.8327608204926883  0.4358772802184018 		Uiso   ? 		O 		-0.58704
O 1.0  		0.6775129761078856 		0.3265776818137207  0.45453200443081865 		Uiso   ? 		O 		-0.58710
O 1.0  		0.6748858309532253 		0.833006183138679  0.4480993409092956 		Uiso   ? 		O 		-0.58704
O 1.0  		0.3199262326466993 		0.2858474825792522  0.45491796424211 		Uiso   ? 		O 		-0.58711
O 1.0  		0.32911520320593246 		0.7878594562763765  0.44063745122432885 		Uiso   ? 		O 		-0.92972
O 1.0  		0.8240186601032082 		0.2868289331632153  0.44295321009207717 		Uiso   ? 		O 		-0.92971
O 1.0  		0.824528402942363 		0.7893316321523212  0.45041509977704386 		Uiso   ? 		O 		-0.61067
O 1.0  		0.42433419017821206 		0.11090391598783003  0.44758472782757375 		Uiso   ? 		O 		-0.92972
O 1.0  		0.4243532139818432 		0.6124251643929729  0.4455262755006864 		Uiso   ? 		O 		-0.92971
O 1.0  		0.9228208603635525 		0.11384826773971932  0.44822799417972603 		Uiso   ? 		O 		-0.92972
O 1.0  		0.922329248740005 		0.604573559721268  0.4441110895259513 		Uiso   ? 		O 		-0.92971
O 1.0  		0.34955940009484243 		0.10329767396211602  0.4488712605318783 		Uiso   ? 		O 		-0.61069
O 1.0  		0.35209543662099585 		0.6043281970752773  0.44784203436843467 		Uiso   ? 		O 		-0.55471
O 1.0  		0.8492224032778635 		0.10476984983806066  0.4477133810980042 		Uiso   ? 		O 		-0.92972
O 1.0  		0.8559513021825909 		0.6065364608891942  0.44655550166413005 		Uiso   ? 		O 		-0.92971
O 1.0  		0.3572756452525603 		0.0392580233585239  0.4470701147458519 		Uiso   ? 		O 		-0.92972
O 1.0  		0.3565914598483385 		0.5397978211797037  0.445140315689395 		Uiso   ? 		O 		-0.92971
O 1.0  		0.8554993606744431 		0.038276572774560806  0.4470701147458519 		Uiso   ? 		O 		-0.92972
O 1.0  		0.8563595475445445 		0.5380802826577682  0.445140315689395 		Uiso   ? 		O 		-0.92971
O 1.0  		0.23177152514444752 		0.29737952694081854  0.4483566474501565 		Uiso   ? 		O 		-0.61067
O 1.0  		0.23887726094866546 		0.8015997644518599  0.4433391699033686 		Uiso   ? 		O 		-0.58406
O 1.0  		0.7340654231860236 		0.296888801648837  0.44861395399101744 		Uiso   ? 		O 		-0.61069
O 1.0  		0.734592761270874 		0.8028265776818138  0.4497718334248916 		Uiso   ? 		O 		-0.61067
O 1.0  		0.2312969404716509 		0.22843262341741097  0.4502864465066134 		Uiso   ? 		O 		-0.58406
O 1.0  		0.23849248668931744 		0.7324074982824615  0.4453976222302559 		Uiso   ? 		O 		-0.61069
O 1.0  		0.7343421911662485 		0.22646972224948478  0.4477133810980042 		Uiso   ? 		O 		-0.61064
O 1.0  		0.7329571177001332 		0.7324074982824615  0.4509297128587657 		Uiso   ? 		O 		-0.58420
O 1.0  		0.3328661552641977 		0.06821081558543529  0.3918778617311841 		Uiso   ? 		O 		-0.61070
O 1.0  		0.32390132961601276 		0.5640887231327903  0.3902053692155881 		Uiso   ? 		O 		-0.58277
O 1.0  		0.8279025181011377 		0.06722936500147218  0.3912345953790318 		Uiso   ? 		O 		-0.61064
O 1.0  		0.8278141362456244 		0.565560899008735  0.39071998229731 		Uiso   ? 		O 		-0.58420
O 1.0  		0.283856549350757 		0.23113161252330947  0.4362632400296932 		Uiso   ? 		O 		-0.61071
O 1.0  		0.2847736772888748 		0.7301992344685445  0.43073114940118334 		Uiso   ? 		O 		-0.58277
O 1.0  		0.7804044151165879 		0.22892334870939252  0.42802943072214367 		Uiso   ? 		O 		-0.58406
O 1.0  		0.7863907589911416 		0.7338796741584062  0.4353626671366799 		Uiso   ? 		O 		-0.55471
O 1.0  		0.16408430732465507 		0.22745117283344787  0.44797068763886516 		Uiso   ? 		O 		-0.60771
O 1.0  		0.16918782116445855 		0.73191677299048  0.4444970493372427 		Uiso   ? 		O 		-0.60031
O 1.0  		0.6665906955385608 		0.22696044754146633  0.44899991380230886 		Uiso   ? 		O 		-0.60751
O 1.0  		0.6633172822440639 		0.7316714103444892  0.450157793236183 		Uiso   ? 		O 		-0.60770
O 1.0  		0.19955683984790887 		0.3255962312297576  0.4097606663210182 		Uiso   ? 		O 		-0.60031
O 1.0  		0.2037927977526985 		0.826626754342919  0.4031993495290647 		Uiso   ? 		O 		-0.60751
O 1.0  		0.6945932026848488 		0.3246147806457945  0.41297699808177973 		Uiso   ? 		O 		-0.60748
O 1.0  		0.6998346703832696 		0.8263813916969281  0.4097606663210182 		Uiso   ? 		O 		-0.60043
O 1.0  		0.23095540772254097 		0.3454706055550103  0.4322749886463489 		Uiso   ? 		O 		-0.60778
O 1.0  		0.2364663066613078 		0.8465011286681716  0.4244271391500908 		Uiso   ? 		O 		-0.59943
O 1.0  		0.728828679113477 		0.34718814407694576  0.4342047877028058 		Uiso   ? 		O 		-0.60747
O 1.0  		0.7302300496102299 		0.8518991068799686  0.4321463353759184 		Uiso   ? 		O 		-0.60043
O 1.0  		0.17857665323532323 		0.18843851212091473  0.43613458675926275 		Uiso   ? 		O 		-0.60777
O 1.0  		0.18461993817789352 		0.6926587496319561  0.4333042148097926 		Uiso   ? 		O 		-0.59947
O 1.0  		0.6800951269012935 		0.1906467759348317  0.43471940078452764 		Uiso   ? 		O 		-0.58406
O 1.0  		0.6795336212559526 		0.6914319364020022  0.43780707927485873 		Uiso   ? 		O 		-0.58420
O 1.0  		0.453499476748425 		0.07998822259299246  0.4075735607237004 		Uiso   ? 		O 		-0.58276
O 1.0  		0.45153802916426666 		0.574148591618412  0.4097606663210182 		Uiso   ? 		O 		-0.58420
O 1.0  		0.9527615713093712 		0.08023358523898323  0.4087314401575745 		Uiso   ? 		O 		-0.58278
O 1.0  		0.9490080707871686 		0.5682598881146335  0.4053864551263825 		Uiso   ? 		O 		-0.58420
O 1.0  		0.4764864139583549 		0.11703798213759938  0.4266142447474086 		Uiso   ? 		O 		-0.58278
O 1.0  		0.4729717964770255 		0.6102169005790559  0.42905865688558736 		Uiso   ? 		O 		-0.58420
O 1.0  		0.9776433248245712 		0.11384826773971932  0.4306024961307529 		Uiso   ? 		O 		-0.58272
O 1.0  		0.9706126613039768 		0.6021199332613604  0.4267428980178391 		Uiso   ? 		O 		-0.55471
O 1.0  		0.295806090290338 		0.3238786927078222  0.4125910382704883 		Uiso   ? 		O 		-0.58406
O 1.0  		0.30549457750794246 		0.8285896555108451  0.4048718420446607 		Uiso   ? 		O 		-0.61067
O 1.0  		0.7915303882353946 		0.3268230444597115  0.4074449074532699 		Uiso   ? 		O 		-0.58406
O 1.0  		0.7933720131765427 		0.8285896555108451  0.41104719902532283 		Uiso   ? 		O 		-1.13805
O 1.0  		0.28572972873839103 		0.34792423201491807  0.4338188278915144 		Uiso   ? 		O 		-1.13812
O 1.0  		0.28710470636660024 		0.8474825792521348  0.423655219527508 		Uiso   ? 		O 		-1.13805
O 1.0  		0.7809785817476604 		0.34694278143095497  0.4295732699673092 		Uiso   ? 		O 		-1.13812
O 1.0  		0.7869561279993664 		0.8501815683580332  0.4342047877028058 		Uiso   ? 		O 		-0.61069
O 1.0  		0.3071057760540984 		0.9890568259888115  0.4291873101560178 		Uiso   ? 		O 		-1.13806
O 1.0  		0.30646687697917435 		0.4909706546275395  0.42867269707429595 		Uiso   ? 		O 		-1.13812
O 1.0  		0.801815766582676 		0.9895475512807932  0.4277721241812828 		Uiso   ? 		O 		-1.13804
O 1.0  		0.8001384883686885 		0.4902345666895672  0.4295732699673092 		Uiso   ? 		O 		-1.13799
O 1.0  		0.2916550408640666 		0.011286681715575621  0.4098893195914487 		Uiso   ? 		O 		-1.13804
O 1.0  		0.2867034567675584 		0.5083914024928845  0.41001797286187913 		Uiso   ? 		O 		-0.55463
O 1.0  		0.7853923909444451 		0.011532044361566397  0.4097606663210182 		Uiso   ? 		O 		-1.13799
O 1.0  		0.7866446888137733 		0.5108450289527923  0.4097606663210182 		Uiso   ? 		O 		-1.13805
O 1.0  		0.39603267751408455 		0.06747472764746296  0.38994806267472726 		Uiso   ? 		O 		-1.13799
O 1.0  		0.39295831447715057 		0.5577092943370302  0.3900767159451577 		Uiso   ? 		O 		-1.13804
O 1.0  		0.8939781640727734 		0.06551182647953677  0.39059132902687954 		Uiso   ? 		O 		-1.13799
O 1.0  		0.8926213176601715 		0.5591814702129748  0.3881469168887008 		Uiso   ? 		O 		-0.55540
O 1.0  		0.45024833331657643 		0.1742074786534498  0.4115618121070447 		Uiso   ? 		O 		-0.55463
O 1.0  		0.4490799053537197 		0.6691039356168417  0.40654433456025674 		Uiso   ? 		O 		-0.55538
O 1.0  		0.9478891981435279 		0.16611051133575427  0.4096320130505878 		Uiso   ? 		O 		-0.55463
O 1.0  		0.9518316530853871 		0.6691039356168417  0.4051291485855216 		Uiso   ? 		O 		-1.13804
O 1.0  		0.47232739484719233 		0.16439297281381884  0.4342047877028058 		Uiso   ? 		O 		-0.55535
O 1.0  		0.4720505945419338 		0.6614976935911278  0.4294446166968788 		Uiso   ? 		O 		-0.55463
O 1.0  		0.9700363195109674 		0.16365688487584654  0.43471940078452764 		Uiso   ? 		O 		-0.55537
O 1.0  		0.9729862176129727 		0.6565904406713123  0.4263569382065477 		Uiso   ? 		O 		-0.55463
O 1.0  		0.38442452333959076 		0.17175385219354206  0.412205078459197 		Uiso   ? 		O 		-0.55534
O 1.0  		0.38260335076000906 		0.6695946609088234  0.4086027868871441 		Uiso   ? 		O 		-1.13799
O 1.0  		0.8809876632051581 		0.16660123662773582  0.4080881738054222 		Uiso   ? 		O 		-0.55463
O 1.0  		0.8864504186987563 		0.6700853862008048  0.4087314401575745 		Uiso   ? 		O 		-0.55549
O 1.0  		0.31352862466915277 		0.9866031995289037  0.4628944670087986 		Uiso   ? 		O 		-0.55471
O 1.0  		0.3069640724915863 		0.48729021493767793  0.46147928103406355 		Uiso   ? 		O 		-0.61064
O 1.0  		0.8070775562997862 		0.9856217489449408  0.4617365875749245 		Uiso   ? 		O 		-0.55471
O 1.0  		0.8058997947441701 		0.4890077534596134  0.46250850719750725 		Uiso   ? 		O 		-0.55471
O 1.0  		0.3106717507145798 		0.008096967317695556  0.4872099351201557 		Uiso   ? 		O 		-0.61071
O 1.0  		0.30354064497271926 		0.5123172048287369  0.4834789902776724 		Uiso   ? 		O 		-0.98192
O 1.0  		0.8045317805538391 		0.008587692609677105  0.4854087893341293 		Uiso   ? 		O 		-0.98194
O 1.0  		0.8056155763650774 		0.5164883698105801  0.4855374426045597 		Uiso   ? 		O 		-0.98193
O 1.0  		0.45531792255501297 		0.09127490430856806  0.48309303046638097 		Uiso   ? 		O 		-0.98194
O 1.0  		0.44785580221287113 		0.5842084601040337  0.4850228295228379 		Uiso   ? 		O 		-0.98193
O 1.0  		0.9492501675620252 		0.088085189910688  0.486180708956712 		Uiso   ? 		O 		-0.98194
O 1.0  		0.9481845029663942 		0.5734125036804398  0.48219245757336776 		Uiso   ? 		O 		-1.13804
O 1.0  		0.37615683604940464 		0.15776818137206794  0.486438015497573 		Uiso   ? 		O 		-0.98199
O 1.0  		0.3841518783652614 		0.6578172539012661  0.4865666687680034 		Uiso   ? 		O 		-0.98193
O 1.0  		0.8713487479906575 		0.15752281872607715  0.4850228295228379 		Uiso   ? 		O 		-0.98200
O 1.0  		0.8962948606477081 		0.660025517715183  0.4824497641142287 		Uiso   ? 		O 		-0.98194
O 1.0  		0.1429963417509243 		0.17592501717538522  0.487853201472308 		Uiso   ? 		O 		-0.56721
O 1.0  		0.15445928666087724 		0.6833349690843067  0.484508216441116 		Uiso   ? 		O 		-0.91724
O 1.0  		0.6509922839540061 		0.168564137795662  0.4873385883905862 		Uiso   ? 		O 		-0.60244
O 1.0  		0.644452826429925 		0.6816174305623712  0.48978300052876494 		Uiso   ? 		O 		-0.91724
O 1.0  		0.19082482639074294 		0.3157817253901266  0.48296437719595053 		Uiso   ? 		O 		-0.91715
O 1.0  		0.20355623585778465 		0.8278535675728728  0.47820420619002346 		Uiso   ? 		O 		-0.91724
O 1.0  		0.6935413836310187 		0.30891157130238495  0.48682397530886434 		Uiso   ? 		O 		-0.98153
O 1.0  		0.6970699769970263 		0.820001962901168  0.4854087893341293 		Uiso   ? 		O 		-1.13516
O 1.0  		0.2839274172945298 		0.26867209735989794  0.4888824276357517 		Uiso   ? 		O 		-0.98153
O 1.0  		0.293975146165929 		0.7724016095789578  0.48064861832820227 		Uiso   ? 		O 		-0.98153
O 1.0  		0.7933626472587498 		0.26376484444008247  0.48373629681853325 		Uiso   ? 		O 		-0.56686
O 1.0  		0.7912590904850452 		0.7716655216409855  0.49004030706962587 		Uiso   ? 		O 		-0.56684
O 1.0  		0.13890624273957586 		0.16561978604377273  0.4104039326731705 		Uiso   ? 		O 		-0.56684
O 1.0  		0.13918590016070517 		0.6646874079890078  0.40924605323929636 		Uiso   ? 		O 		-0.59988
O 1.0  		0.6317102981940761 		0.16144862106192956  0.41130450556618375 		Uiso   ? 		O 		-0.59988
O 1.0  		0.6380734789681204 		0.6688585729708509  0.41207642518876647 		Uiso   ? 		O 		-0.59987
O 1.0  		0.29627359786626745 		0.26106585533418397  0.4137489177043625 		Uiso   ? 		O 		-0.60243
O 1.0  		0.30384365983746514 		0.7611149278633821  0.40924605323929636 		Uiso   ? 		O 		-0.59988
O 1.0  		0.7918664184295953 		0.26204730591814707  0.4064156812898262 		Uiso   ? 		O 		-0.56685
O 1.0  		0.7976643438544038 		0.7657768181372069  0.41310565135221017 		Uiso   ? 		O 		-0.56684
O 1.0  		0.39429902652702575 		0.13200510354303663  0.3917492084607537 		Uiso   ? 		O 		-0.56684
O 1.0  		0.3920681477025214 		0.6269015605064286  0.3900767159451577 		Uiso   ? 		O 		-1.13516
O 1.0  		0.8917996163494005 		0.12022769653547945  0.39162055519032324 		Uiso   ? 		O 		-0.56730
O 1.0  		0.8935843002225323 		0.6227303955245853  0.3882755701591312 		Uiso   ? 		O 		-0.56739
O 1.0  		0.31795201041782023 		0.04858180390617333  0.4622512006566463 		Uiso   ? 		O 		-0.59953
O 1.0  		0.3160914920159179 		0.5505937776032978  0.4608360146819112 		Uiso   ? 		O 		-0.56746
O 1.0  		0.8179173141866195 		0.049808617136127206  0.4619938941157854 		Uiso   ? 		O 		-0.59953
O 1.0  		0.8219583771647754 		0.5542742172931593  0.4617365875749245 		Uiso   ? 		O 		-0.60206
O 1.0  		0.4156363932904584 		0.0603592109137305  0.4598067885184675 		Uiso   ? 		O 		-0.60206
O 1.0  		0.4108162865756789 		0.5594268328589656  0.4600640950593285 		Uiso   ? 		O 		-0.60206
O 1.0  		0.9112620831992182 		0.06183138678967515  0.4618652408453549 		Uiso   ? 		O 		-0.60206
O 1.0  		0.9094867329188459 		0.5508391402492885  0.45916352216631523 		Uiso   ? 		O 		-0.60243
O 1.0  		0.40229728257686587 		0.14672686230248308  0.46250850719750725 		Uiso   ? 		O 		-0.56720
O 1.0  		0.40738320117097365 		0.6477573854156444  0.4609646679523417 		Uiso   ? 		O 		-0.56740
O 1.0  		0.9002186974129706 		0.14599077436451074  0.4612219744932026 		Uiso   ? 		O 		-0.56734
O 1.0  		0.9113834970680745 		0.6426047698498382  0.4583916025437325 		Uiso   ? 		O 		-0.59953
O 1.0  		0.3152970438366809 		0.051771518304053396  0.4358772802184018 		Uiso   ? 		O 		-0.56743
O 1.0  		0.31698311967351606 		0.5528020414172147  0.43471940078452764 		Uiso   ? 		O 		-0.59953
O 1.0  		0.8143795175707298 		0.05250760624202572  0.43574862694797134 		Uiso   ? 		O 		-1.13516
O 1.0  		0.8180766129948274 		0.5550103052311317  0.43471940078452764 		Uiso   ? 		O 		-0.58277
O 1.0  		0.3461605312595493 		0.15089802728432625  0.43073114940118334 		Uiso   ? 		O 		-0.58279
O 1.0  		0.35087193410012596 		0.6558543527333399  0.4304738428603224 		Uiso   ? 		O 		-0.58279
O 1.0  		0.8443032338908315 		0.15187947786828934  0.4281580839925741 		Uiso   ? 		O 		-0.58279
O 1.0  		0.855431008869574 		0.65904406713122  0.43111710921247476 		Uiso   ? 		O 		-0.58278
O 1.0  		0.4112310407395547 		0.059623122975758176  0.43304690826893166 		Uiso   ? 		O 		-0.58279
O 1.0  		0.4073419075046942 		0.5567278437530672  0.43369017462108395 		Uiso   ? 		O 		-0.58355
O 1.0  		0.910753768917999 		0.05741485916184121  0.43574862694797134 		Uiso   ? 		O 		-0.58356
O 1.0  		0.9065776091970967 		0.5518205908332516  0.4321463353759184 		Uiso   ? 		O 		-0.56721
O 1.0  		0.4036444387785959 		0.14304642261262146  0.43574862694797134 		Uiso   ? 		O 		-0.58355
O 1.0  		0.4055518024106086 		0.6457944842477182  0.43304690826893166 		Uiso   ? 		O 		-0.58356
O 1.0  		0.9014278997560834 		0.14500932378054765  0.43407613443237536 		Uiso   ? 		O 		-0.58354
O 1.0  		0.9100932819343608 		0.6455491216017274  0.43176037556462704 		Uiso   ? 		O 		-0.56721
O 1.0  		0.34269532311341316 		0.06109529885170282  0.5041921668169765 		Uiso   ? 		O 		-0.72725
O 1.0  		0.3403352880531394 		0.5604082834429287  0.5018764079492283 		Uiso   ? 		O 		-0.58355
O 1.0  		0.8380339865361313 		0.05986848562174895  0.502905634112672 		Uiso   ? 		O 		-0.92578
O 1.0  		0.8473961014453733 		0.5660516243007165  0.5021337144900893 		Uiso   ? 		O 		-0.55543
O 1.0  		0.47911730881691 		0.11507508096967319  0.4601927483297589 		Uiso   ? 		O 		-0.92578
O 1.0  		0.4719662866833943 		0.6094808126410836  0.4618652408453549 		Uiso   ? 		O 		-0.92578
O 1.0  		0.9734680576916929 		0.11654725684561783  0.4644383062539641 		Uiso   ? 		O 		-0.92578
O 1.0  		0.9702117526819021 		0.6008931200314064  0.4598067885184675 		Uiso   ? 		O 		-0.92578
O 1.0  		0.40686319982600205 		0.07213661792128767  0.5017477546787978 		Uiso   ? 		O 		-0.92578
O 1.0  		0.39527395579615043 		0.5653155363627441  0.501233141597076 		Uiso   ? 		O 		-0.58306
O 1.0  		0.8990714517317937 		0.07017371675336147  0.5038062070056852 		Uiso   ? 		O 		-0.58306
O 1.0  		0.9006741936320688 		0.5667877122386888  0.49968930235191045 		Uiso   ? 		O 		-0.56223
O 1.0  		0.39386292741355944 		0.12390813622534107  0.5027769808422415 		Uiso   ? 		O 		-0.72731
O 1.0  		0.3938796300712313 		0.6190499558347238  0.5032915939239634 		Uiso   ? 		O 		-0.60243
O 1.0  		0.8864392185959936 		0.1226813229953872  0.5052213929804202 		Uiso   ? 		O 		-0.58477
O 1.0  		0.9065790700800658 		0.623221120816567  0.49994660889277137 		Uiso   ? 		O 		-0.55543
O 1.0  		0.18400559778654352 		0.21714594170183532  0.5050927397099898 		Uiso   ? 		O 		-0.58306
O 1.0  		0.1999243598385281 		0.7292177838845815  0.5004612219744933 		Uiso   ? 		O 		-0.60244
O 1.0  		0.6950662128156875 		0.20953969967612132  0.5034202471943938 		Uiso   ? 		O 		-0.58477
O 1.0  		0.6941565842853592 		0.7194032780449505  0.5068938854960162 		Uiso   ? 		O 		-0.59953
O 1.0  		0.18612731810088906 		0.27578761409363045  0.5038062070056852 		Uiso   ? 		O 		-0.59953
O 1.0  		0.19706667462988645 		0.7817253901266071  0.49763085002502305 		Uiso   ? 		O 		-0.59987
O 1.0  		0.6984957435094423 		0.26867209735989794  0.5048354331691288 		Uiso   ? 		O 		-0.60206
O 1.0  		0.6881291417374702 		0.7753459613308471  0.5053500462508507 		Uiso   ? 		O 		-0.59988
O 1.0  		0.24070210189818658 		0.26891746000588873  0.5056073527917117 		Uiso   ? 		O 		-0.72750
O 1.0  		0.25814116450191016 		0.7814800274806164  0.4989173827293277 		Uiso   ? 		O 		-0.56232
O 1.0  		0.754093632346067 		0.26597310825399945  0.5036775537352547 		Uiso   ? 		O 		-0.60207
O 1.0  		0.7445112525725486 		0.7716655216409855  0.5061219658734335 		Uiso   ? 		O 		-0.56232
O 1.0  		0.19408892277636855 		0.21223868878201985  0.3922638215424755 		Uiso   ? 		O 		-0.58306
O 1.0  		0.1954463051588819 		0.7083619589753657  0.3882755701591312 		Uiso   ? 		O 		-0.58478
O 1.0  		0.6856180371968916 		0.20806752380017668  0.3912345953790318 		Uiso   ? 		O 		-0.56720
O 1.0  		0.6955759556548421 		0.7120423986652273  0.39380766078764107 		Uiso   ? 		O 		-0.58478
O 1.0  		0.17935402545488777 		0.28094022965943666  0.4338188278915144 		Uiso   ? 		O 		-0.55543
O 1.0  		0.18774997639281935 		0.7822161154185888  0.4293159634264483 		Uiso   ? 		O 		-0.58478
O 1.0  		0.6793346033234233 		0.2792226911375012  0.43690650638184547 		Uiso   ? 		O 		-0.56721
O 1.0  		0.6792902095821496 		0.7861419177544412  0.4353626671366799 		Uiso   ? 		O 		-0.58477
O 1.0  		0.18884570222693348 		0.2671999214839533  0.3917492084607537 		Uiso   ? 		O 		-0.56235
O 1.0  		0.1914715491665355 		0.7679850819511238  0.3867317309139657 		Uiso   ? 		O 		-0.58306
O 1.0  		0.6822918704903409 		0.27578761409363045  0.3904626757564491 		Uiso   ? 		O 		-0.56222
O 1.0  		0.695982480490815 		0.7736284228089116  0.3931643944354888 		Uiso   ? 		O 		-0.56227
O 1.0  		0.25358298961968717 		0.2708803611738149  0.3936790075172106 		Uiso   ? 		O 		-0.58306
O 1.0  		0.26339183545021316 		0.7694572578270685  0.38750365053654845 		Uiso   ? 		O 		-1.13516
O 1.0  		0.744198725805987 		0.2721071744037688  0.3917492084607537 		Uiso   ? 		O 		-1.13516
O 1.0  		0.7511072455376119 		0.7733830601629209  0.3952228467623761 		Uiso   ? 		O 		-1.13516
O 1.0  		0.3686320770913928 		0.051771518304053396  0.4756311407814143 		Uiso   ? 		O 		-0.55402
O 1.0  		0.3636235519268682 		0.5496123270193347  0.4737013417249573 		Uiso   ? 		O 		-1.12612
O 1.0  		0.8640364792049753 		0.051526155658062615  0.47627440713356656 		Uiso   ? 		O 		-1.12612
O 1.0  		0.8661387377636217 		0.5508391402492885  0.47344403518409645 		Uiso   ? 		O 		-1.12612
O 1.0  		0.4131203544899155 		0.10845028952792228  0.4756311407814143 		Uiso   ? 		O 		-1.12613
O 1.0  		0.4093363057682401 		0.6023652959073511  0.4743446080771096 		Uiso   ? 		O 		-1.12614
O 1.0  		0.909766828292043 		0.10771420158994996  0.478075552919593 		Uiso   ? 		O 		-0.55402
O 1.0  		0.9152008697711381 		0.5996663068014526  0.4729294221023746 		Uiso   ? 		O 		-0.55402
O 1.0  		0.3467827276768015 		0.15384237903621553  0.4644383062539641 		Uiso   ? 		O 		-0.55402
O 1.0  		0.353191730750055 		0.652419275689469  0.4650815726061165 		Uiso   ? 		O 		-0.55402
O 1.0  		0.8446712731674741 		0.15261556580626168  0.4618652408453549 		Uiso   ? 		O 		-0.60243
O 1.0  		0.8604803084143549 		0.6551182647953676  0.4640523464426728 		Uiso   ? 		O 		-0.55402
O 1.0  		0.3582779736372417 		0.0986357836882913  0.47614575386313607 		Uiso   ? 		O 		-0.72747
O 1.0  		0.3579289581642303 		0.5994209441554619  0.4757597940518447 		Uiso   ? 		O 		-0.55543
O 1.0  		0.8544665977492779 		0.09740897045833743  0.47691767348571884 		Uiso   ? 		O 		-0.72716
O 1.0  		0.8646610781021422 		0.6001570320934342  0.4751165276996924 		Uiso   ? 		O 		-0.55543
O 1.0  		0.3593306529540621 		0.04931789184414565  0.41709390273555447 		Uiso   ? 		O 		-0.72713
O 1.0  		0.35419065040780867 		0.5451957993915006  0.4154214102199585 		Uiso   ? 		O 		-0.55543
O 1.0  		0.8564021071008486 		0.04858180390617333  0.4167079429242631 		Uiso   ? 		O 		-0.98153
O 1.0  		0.8557989344872277 		0.5471587005594268  0.4145208373269453 		Uiso   ? 		O 		-1.12611
O 1.0  		0.4134707985208623 		0.10575130042202376  0.4174798625468459 		Uiso   ? 		O 		-0.98153
O 1.0  		0.4117963774227458 		0.6026106585533418  0.41426353078608436 		Uiso   ? 		O 		-0.98153
O 1.0  		0.9098959845278123 		0.10329767396211602  0.4192810083328723 		Uiso   ? 		O 		-0.91718
O 1.0  		0.9141800858777706 		0.6018745706153695  0.413877570974793 		Uiso   ? 		O 		-0.91726
O 1.0  		0.2736931854923105 		0.28560211993326134  0.2957738687196298 		Uiso   ? 		O 		-0.97332
O 1.0  		0.2733441700192991 		0.7863872804004319  0.29242888368843784 		Uiso   ? 		O 		-0.97351
O 1.0  		0.7742542928098183 		0.28462066934929825  0.295001949097047 		Uiso   ? 		O 		-1.12392
O 1.0  		0.7704308982658221 		0.7827068407105703  0.29525925563790795 		Uiso   ? 		O 		-0.97464
O 1.0  		0.3627273143023848 		0.10795956423594073  0.13186960219122248 		Uiso   ? 		O 		-0.97358
O 1.0  		0.3609390110682353 		0.6062910982432035  0.13199825546165297 		Uiso   ? 		O 		-0.97598
O 1.0  		0.8590626898958862 		0.10575130042202376  0.13534324049284496 		Uiso   ? 		O 		-0.95788
O 1.0  		0.8626940466291194 		0.6072725488271666  0.1345713208702622 		Uiso   ? 		O 		-0.91942
O 1.0  		0.3646003800310299 		0.1121307292177839  0.27647587815506064 		Uiso   ? 		O 		-0.56854
O 1.0  		0.3630903056600743 		0.6114437138090097  0.2762185716141997 		Uiso   ? 		O 		-0.59545
O 1.0  		0.8616213695866884 		0.10746883894395919  0.27686183796635205 		Uiso   ? 		O 		-0.59668
O 1.0  		0.8607399681098735 		0.6050642850132497  0.2773764510480739 		Uiso   ? 		O 		-0.56447
O 1.0  		0.17683603881038623 		0.233830601629208  0.13444266759983173 		Uiso   ? 		O 		-0.56220
O 1.0  		0.17518801058081337 		0.7358425753263325  0.13405670778854034 		Uiso   ? 		O 		-0.56216
O 1.0  		0.6764333033025429 		0.23432132692118954  0.1341853610589708 		Uiso   ? 		O 		-0.56871
O 1.0  		0.6766560196556557 		0.734125036804397  0.13174094892079205 		Uiso   ? 		O 		-0.56910
O 1.0  		0.17445050346959284 		0.23628422808911573  0.2771191445072129 		Uiso   ? 		O 		-0.56804
O 1.0  		0.17754299772213397 		0.7392776523702032  0.2731308931238687 		Uiso   ? 		O 		-1.11899
O 1.0  		0.6746435715104581 		0.2345666895671803  0.27789106412979575 		Uiso   ? 		O 		-0.56452
O 1.0  		0.6719571641418217 		0.7353518500343508  0.27827702394108705 		Uiso   ? 		O 		-0.59596
O 1.0  		0.23153911858046283 		0.28756502110118753  0.13444266759983173 		Uiso   ? 		O 		-0.59474
O 1.0  		0.23081558735392035 		0.7922759839042105  0.13405670778854034 		Uiso   ? 		O 		-0.60596
O 1.0  		0.7315220175949578 		0.29222691137501233  0.13495728068155355 		Uiso   ? 		O 		-0.60576
O 1.0  		0.7313021583577157 		0.7885955442143489  0.13521458722241447 		Uiso   ? 		O 		-0.54353
O 1.0  		0.23120626979521186 		0.29369908725095695  0.2772477977776434 		Uiso   ? 		O 		-0.55376
O 1.0  		0.23295808432291143 		0.7957110609480813  0.2750606921803256 		Uiso   ? 		O 		-0.56331
O 1.0  		0.7303609586970137 		0.29075473549906766  0.2777624108593652 		Uiso   ? 		O 		-0.56947
O 1.0  		0.7287610739126094 		0.7903130827362843  0.27673318469592156 		Uiso   ? 		O 		-0.56619
O 1.0  		0.3030860580255331 		0.9924919030326824  0.14331974325953353 		Uiso   ? 		O 		-0.55223
O 1.0  		0.30184903425594123 		0.4902345666895672  0.1447349292342686 		Uiso   ? 		O 		-1.09612
O 1.0  		0.8052572763082283 		0.99175581509471  0.14756530118373876 		Uiso   ? 		O 		-0.56374
O 1.0  		0.8036938802302739 		0.4909706546275395  0.14756530118373876 		Uiso   ? 		O 		-0.60541
O 1.0  		0.11198805069054932 		0.17298066542349594  0.18114380476608904 		Uiso   ? 		O 		-0.60655
O 1.0  		0.11597449374664814 		0.6845617823142606  0.18243033747039367 		Uiso   ? 		O 		-0.58017
O 1.0  		0.615673093048095 		0.17739719305132987  0.18127245803651953 		Uiso   ? 		O 		-0.58231
O 1.0  		0.6116788753000495 		0.6776916282265188  0.18024323187307584 		Uiso   ? 		O 		-0.58341
O 1.0  		0.2328436338919334 		0.23407596427519875  0.1345713208702622 		Uiso   ? 		O 		-0.58303
O 1.0  		0.2305910044908042 		0.7365786632643047  0.13328478816595757 		Uiso   ? 		O 		-0.58188
O 1.0  		0.732285349279777 		0.233830601629208  0.13521458722241447 		Uiso   ? 		O 		-0.59447
O 1.0  		0.7318705951159012 		0.7336343115124154  0.13534324049284496 		Uiso   ? 		O 		-0.58184
O 1.0  		0.2323135690340893 		0.23726567867307882  0.27853433048194803 		Uiso   ? 		O 		-0.57922
O 1.0  		0.23290432466384473 		0.7378054764942586  0.2749320389098951 		Uiso   ? 		O 		-0.58115
O 1.0  		0.7327279248701318 		0.23726567867307882  0.2787916370228089 		Uiso   ? 		O 		-1.09728
O 1.0  		0.7278092101190559 		0.7348611247423693  0.27943490337496124 		Uiso   ? 		O 		-0.58082
O 1.0  		0.17445697994648132 		0.231622337815291  0.1955529710543007 		Uiso   ? 		O 		-0.58119
O 1.0  		0.17784529830791218 		0.7390322897242124  0.19400913180913515 		Uiso   ? 		O 		-0.57614
O 1.0  		0.6752481726820143 		0.23407596427519875  0.194523744890857 		Uiso   ? 		O 		-0.57942
O 1.0  		0.6714007064154339 		0.7333889488664246  0.19362317199784376 		Uiso   ? 		O 		-0.91981
O 1.0  		0.17959193457378164 		0.2384924919030327  0.3374575283390992 		Uiso   ? 		O 		-0.91758
O 1.0  		0.17400287996028488 		0.7355972126803416  0.3343698498487681 		Uiso   ? 		O 		-0.92220
O 1.0  		0.6786568130621347 		0.23579350279713418  0.33797214142082094 		Uiso   ? 		O 		-0.90762
O 1.0  		0.6745487131780562 		0.7375601138482677  0.33835810123211235 		Uiso   ? 		O 		-0.92012
O 1.0  		0.11460599259532747 		0.18034154480321918  0.32343432186217885 		Uiso   ? 		O 		-0.55228
O 1.0  		0.11250659115255182 		0.6772009029345373  0.31957472374926504 		Uiso   ? 		O 		-0.59170
O 1.0  		0.616170288560507 		0.17371675336146825  0.3242062414847617 		Uiso   ? 		O 		-0.91298
O 1.0  		0.6143931040951647 		0.6801452546864265  0.32459220129605304 		Uiso   ? 		O 		-0.58586
O 1.0  		0.2313113543083969 		0.2905093728530769  0.19516701124300928 		Uiso   ? 		O 		-0.59088
O 1.0  		0.23301502539092797 		0.7949749730101091  0.19207933275267824 		Uiso   ? 		O 		-1.12709
O 1.0  		0.7289874096267399 		0.289282559623123  0.19696815702903575 		Uiso   ? 		O 		-0.58845
O 1.0  		0.7284018322588146 		0.7912945333202475  0.19619623740645298 		Uiso   ? 		O 		-0.59292
O 1.0  		0.23172106055331954 		0.29345372460496616  0.33771483487996007 		Uiso   ? 		O 		-0.60540
O 1.0  		0.2270389076971574 		0.7898223574443027  0.3351417694713508 		Uiso   ? 		O 		-0.59609
O 1.0  		0.7317914488353038 		0.29149082343703997  0.33668560871651637 		Uiso   ? 		O 		-0.59182
O 1.0  		0.7297425119836563 		0.7922759839042105  0.3381007946912515 		Uiso   ? 		O 		-0.58769
O 1.0  		0.23122472530389798 		0.23211306310727256  0.19465239816128746 		Uiso   ? 		O 		-0.55222
O 1.0  		0.232389533905737 		0.7380508391402494  0.19285125237526102 		Uiso   ? 		O 		-0.60584
O 1.0  		0.7314441862133068 		0.2355481401511434  0.19529566451343977 		Uiso   ? 		O 		-0.59609
O 1.0  		0.72892860204872 		0.734125036804397  0.19568162432473113 		Uiso   ? 		O 		-0.58791
O 1.0  		0.30260413661285757 		0.9932279909706547  0.1765122870305925 		Uiso   ? 		O 		-0.56520
O 1.0  		0.29965839384178156 		0.4892531161056041  0.17857073935747983 		Uiso   ? 		O 		-0.54567
O 1.0  		0.7993885642736023 		0.9897929139267838  0.18024323187307584 		Uiso   ? 		O 		-0.56995
O 1.0  		0.8007102201948126 		0.4892531161056041  0.18050053841393676 		Uiso   ? 		O 		-0.55884
O 1.0  		0.23219088927520845 		0.23702031602708803  0.33732887506866865 		Uiso   ? 		O 		-0.55496
O 1.0  		0.22970817445605388 		0.7360879379723232  0.3343698498487681 		Uiso   ? 		O 		-0.54469
O 1.0  		0.7330454995556465 		0.23407596427519875  0.3384867545025428 		Uiso   ? 		O 		-0.54282
O 1.0  		0.7311937787765921 		0.7378054764942586  0.33835810123211235 		Uiso   ? 		O 		-0.58949
O 1.0  		0.11536064031628776 		0.23284915104524487  0.14512088904555998 		Uiso   ? 		O 		-0.58833
O 1.0  		0.11241359933015344 		0.7360879379723232  0.1470506881020169 		Uiso   ? 		O 		-0.55222
O 1.0  		0.6163314538787181 		0.23481205221317109  0.14627876847943413 		Uiso   ? 		O 		-1.10355
O 1.0  		0.6172157124714038 		0.7333889488664246  0.14434896942297723 		Uiso   ? 		O 		-1.11639
O 1.0  		0.12155804580523571 		0.23971930513298656  0.2937154163927424 		Uiso   ? 		O 		-1.11954
O 1.0  		0.11484959926207478 		0.7375601138482677  0.28844063230509354 		Uiso   ? 		O 		-1.12527
O 1.0  		0.6172295580132048 		0.23235842575326332  0.2939727229336034 		Uiso   ? 		O 		-0.59307
O 1.0  		0.6168981377858893 		0.7365786632643047  0.29525925563790795 		Uiso   ? 		O 		-1.12708
O 1.0  		0.23395093313081092 		0.17764255569732065  0.14743664791330827 		Uiso   ? 		O 		-1.12760
O 1.0  		0.22955580676069054 		0.6767101776425557  0.14679338156115598 		Uiso   ? 		O 		-0.79092
O 1.0  		0.7374387594157634 		0.1791147315732653  0.14807991426546058 		Uiso   ? 		O 		-0.56753
O 1.0  		0.7324149601515024 		0.6798998920404358  0.1489804871584738 		Uiso   ? 		O 		-0.74304
O 1.0  		0.1819612218928593 		0.19138286387280404  0.17779881973489706 		Uiso   ? 		O 		-0.75101
O 1.0  		0.18062429187191253 		0.694867013445873  0.17767016646446662 		Uiso   ? 		O 		-0.83617
O 1.0  		0.6838958782806407 		0.19187358916478559  0.17818477954618847 		Uiso   ? 		O 		-0.82744
O 1.0  		0.6793868697744874 		0.6924133869859653  0.17767016646446662 		Uiso   ? 		O 		-0.71793
O 1.0  		0.23472867865237618 		0.18132299538718227  0.2920429238771464 		Uiso   ? 		O 		-0.55212
O 1.0  		0.23509167001006567 		0.6848071449602513  0.2898558182798286 		Uiso   ? 		O 		-1.12153
O 1.0  		0.7392701581761284 		0.18107763274119149  0.2907563911728418 		Uiso   ? 		O 		-0.55225
O 1.0  		0.7328070711507293 		0.6794091667484543  0.29114235098413316 		Uiso   ? 		O 		-0.55239
O 1.0  		0.11551618942060081 		0.2335852389832172  0.17767016646446662 		Uiso   ? 		O 		-0.95808
O 1.0  		0.11855174260512547 		0.737314751202277  0.17947131225049306 		Uiso   ? 		O 		-0.88446
O 1.0  		0.6190674332504583 		0.22965943664736485  0.17792747300532755 		Uiso   ? 		O 		-0.56806
O 1.0  		0.6122298304715281 		0.73191677299048  0.17625498048973157 		Uiso   ? 		O 		-0.94925
O 1.0  		0.11841003904261348 		0.2355481401511434  0.32484950783691396 		Uiso   ? 		O 		-0.97459
O 1.0  		0.11424499809051847 		0.7380508391402494  0.3203466433718479 		Uiso   ? 		O 		-0.97348
O 1.0  		0.6154967672891365 		0.23186770046128177  0.3249781611073444 		Uiso   ? 		O 		-1.13799
O 1.0  		0.6144950071994001 		0.7355972126803416  0.326264693811649 		Uiso   ? 		O 		-0.98200
O 1.0  		0.2351031944059072 		0.17739719305132987  0.17959996552092353 		Uiso   ? 		O 		-0.98194
O 1.0  		0.2318450552111468 		0.6791638041024635  0.17959996552092353 		Uiso   ? 		O 		-0.98200
O 1.0  		0.7345208380711665 		0.17837864363529296  0.18037188514350627 		Uiso   ? 		O 		-0.98194
O 1.0  		0.7303053325279435 		0.6769555402885465  0.18088649822522812 		Uiso   ? 		O 		-0.98200
O 1.0  		0.18216723558830034 		0.19604475414662875  0.32060394991270874 		Uiso   ? 		O 		-0.98194
O 1.0  		0.17986414159604308 		0.6946216507998823  0.31738761815194727 		Uiso   ? 		O 		-0.61067
O 1.0  		0.684623159211078 		0.1916282265187948  0.321247216264861 		Uiso   ? 		O 		-0.61064
O 1.0  		0.6808918962264898 		0.6958484640298361  0.32163317607615244 		Uiso   ? 		O 		-0.98200
O 1.0  		0.23117328679079063 		0.18058690744920994  0.32472085456648353 		Uiso   ? 		O 		-0.98194
O 1.0  		0.2309381534538122 		0.6798998920404358  0.3200893368309869 		Uiso   ? 		O 		-0.98193
O 1.0  		0.7377169882789574 		0.1800961821572284  0.32459220129605304 		Uiso   ? 		O 		-0.98194
O 1.0  		0.732235339324605 		0.6803906173324173  0.32549277418906625 		Uiso   ? 		O 		-0.61071
O 1.0  		0.3567145942431753 		0.9905290018647561  0.17908535243920168 		Uiso   ? 		O 		-0.98193
O 1.0  		0.3588116745399916 		0.48729021493767793  0.17818477954618847 		Uiso   ? 		O 		-0.98194
O 1.0  		0.858248342008882 		0.9897929139267838  0.18217303092953274 		Uiso   ? 		O 		-0.98193
O 1.0  		0.85869596551819 		0.490479929335558  0.18114380476608904 		Uiso   ? 		O 		-0.61064
O 1.0  		0.35678680941092833 		0.9868485621748946  0.3204752966422783 		Uiso   ? 		O 		-0.98194
O 1.0  		0.3582334662369789 		0.4929335557954657  0.3239489349439007 		Uiso   ? 		O 		-0.60771
O 1.0  		0.8585001780035324 		0.9856217489449408  0.32073260318313923 		Uiso   ? 		O 		-0.60751
O 1.0  		0.8592917690668985 		0.48827166552164103  0.3233056685917484 		Uiso   ? 		O 		-0.60771
O 1.0  		0.30265833422399224 		0.10894101481990383  0.17715555338274477 		Uiso   ? 		O 		-1.13805
O 1.0  		0.305529540681356 		0.6102169005790559  0.17895669916877122 		Uiso   ? 		O 		-0.60751
O 1.0  		0.7990265791629259 		0.10722347629796841  0.1799859253322149 		Uiso   ? 		O 		-0.60747
O 1.0  		0.8074970664145698 		0.611198351163019  0.18140111130694997 		Uiso   ? 		O 		-0.60778
O 1.0  		0.306991471607143 		0.11335754244773777  0.32343432186217885 		Uiso   ? 		O 		-0.60747
O 1.0  		0.3045744954788528 		0.6134066149769359  0.32369162840303983 		Uiso   ? 		O 		-1.13812
O 1.0  		0.8075437813018029 		0.11065855334183924  0.32472085456648353 		Uiso   ? 		O 		-0.60778
O 1.0  		0.801529746343647 		0.6077632741191481  0.323177015321318 		Uiso   ? 		O 		-0.60747
O 1.0  		0.35765436534594214 		0.9902836392187653  0.1447349292342686 		Uiso   ? 		O 		-0.60777
O 1.0  		0.35942507333439594 		0.4885170281676318  0.14434896942297723 		Uiso   ? 		O 		-0.60747
O 1.0  		0.8578474333868074 		0.9885661006968299  0.14782260772459968 		Uiso   ? 		O 		-0.60777
O 1.0  		0.8596598083435412 		0.4890077534596134  0.14692203483158642 		Uiso   ? 		O 		-0.60771
O 1.0  		0.35883301948958213 		0.9951908921385809  0.2875400594120803 		Uiso   ? 		O 		-0.60751
O 1.0  		0.3590024141356962 		0.4948964569633919  0.29024177809111995 		Uiso   ? 		O 		-0.61064
O 1.0  		0.8574224530421483 		0.9885661006968299  0.28831197903466305 		Uiso   ? 		O 		-0.60770
O 1.0  		0.8555238870329835 		0.4875355775836687  0.28934120519810674 		Uiso   ? 		O 		-0.60751
O 1.0  		0.2903298625569394 		0.2326037883992541  0.18114380476608904 		Uiso   ? 		O 		-0.60031
O 1.0  		0.28618009570458075 		0.7321621356364708  0.18037188514350627 		Uiso   ? 		O 		-0.61072
O 1.0  		0.7870990161179477 		0.23211306310727256  0.18243033747039367 		Uiso   ? 		O 		-1.13805
O 1.0  		0.7852209024703496 		0.7306899597605262  0.1826876440112546 		Uiso   ? 		O 		-0.60031
O 1.0  		0.3049716543970328 		0.1101678280498577  0.14512088904555998 		Uiso   ? 		O 		-0.60043
O 1.0  		0.30387776274788836 		0.6077632741191481  0.14679338156115598 		Uiso   ? 		O 		-0.59946
O 1.0  		0.8052392587516102 		0.1111492786338208  0.1476939544541692 		Uiso   ? 		O 		-0.60043
O 1.0  		0.8091969877932059 		0.611198351163019  0.14807991426546058 		Uiso   ? 		O 		-0.59945
O 1.0  		0.3088622161898287 		0.1111492786338208  0.2908850444432723 		Uiso   ? 		O 		-1.13812
O 1.0  		0.3063730248937856 		0.6148787908528806  0.2904990846319809 		Uiso   ? 		O 		-0.60043
O 1.0  		0.811581094576064 		0.11065855334183924  0.2907563911728418 		Uiso   ? 		O 		-0.59947
O 1.0  		0.8034092885491806 		0.6072725488271666  0.29062773790241136 		Uiso   ? 		O 		-0.60043
O 1.0  		0.1360583290757614 		0.2674452841299441  0.2712010940674118 		Uiso   ? 		O 		-0.59944
O 1.0  		0.13791522811664617 		0.7662675434291885  0.26566900343890193 		Uiso   ? 		O 		-0.60031
O 1.0  		0.6361351938346341 		0.2608204926881932  0.27042917444482895 		Uiso   ? 		O 		-0.60031
O 1.0  		0.6363690289565542 		0.7687211698890961  0.2741601192873123 		Uiso   ? 		O 		-0.61068
O 1.0  		0.2890877908683944 		0.23309451369123566  0.3263933470820795 		Uiso   ? 		O 		-0.58722
O 1.0  		0.2878888147060649 		0.7338796741584062  0.3242062414847617 		Uiso   ? 		O 		-0.58719
O 1.0  		0.7952569766030301 		0.2365295907351065  0.32690796016380136 		Uiso   ? 		O 		-0.58723
O 1.0  		0.7869296214718338 		0.7324074982824615  0.3272939199750927 		Uiso   ? 		O 		-0.58720
O 1.0  		0.18446258721364436 		0.28265776818137206  0.17599767394887064 		Uiso   ? 		O 		-1.13805
O 1.0  		0.18361637622822108 		0.7871233683384042  0.176383633760162 		Uiso   ? 		O 		-0.58723
O 1.0  		0.6841496621192498 		0.28290313082736285  0.1774128599236057 		Uiso   ? 		O 		-0.58720
O 1.0  		0.6799429541988746 		0.7831975660025519  0.17586902067844015 		Uiso   ? 		O 		-0.61069
O 1.0  		0.20030062844307356 		0.168564137795662  0.27042917444482895 		Uiso   ? 		O 		-0.61069
O 1.0  		0.20376116197225733 		0.6722936500147219  0.26759880249535883 		Uiso   ? 		O 		-0.58722
O 1.0  		0.7078915066931515 		0.17101776425556972  0.2691426417405244 		Uiso   ? 		O 		-0.58719
O 1.0  		0.7014284196677525 		0.6693492982628326  0.26978590809267666 		Uiso   ? 		O 		-1.13813
O 1.0  		0.1379290736584471 		0.2652370203160271  0.20018448878979728 		Uiso   ? 		O 		-0.58723
O 1.0  		0.14129099915133428 		0.7674943566591423  0.20134236822367144 		Uiso   ? 		O 		-0.58720
O 1.0  		0.6358000239034238 		0.2605751300422024  0.20057044860108866 		Uiso   ? 		O 		-0.58723
O 1.0  		0.6307104859482984 		0.7603788399254099  0.19992718224893638 		Uiso   ? 		O 		-0.58720
O 1.0  		0.14159834765606558 		0.2645009323780548  0.3469778703509533 		Uiso   ? 		O 		-0.61071
O 1.0  		0.13756246293973992 		0.7625871037393268  0.3431182722380394 		Uiso   ? 		O 		-0.58704
O 1.0  		0.6402053764543274 		0.2613112179801747  0.34723517689181416 		Uiso   ? 		O 		-0.58710
O 1.0  		0.6397184071226989 		0.7647953675532437  0.3487790161369797 		Uiso   ? 		O 		-0.58704
O 1.0  		0.20086356264634986 		0.1658651486897635  0.2010850616828105 		Uiso   ? 		O 		-0.58711
O 1.0  		0.20520044973339543 		0.6747472764746295  0.20301486073926744 		Uiso   ? 		O 		-0.58704
O 1.0  		0.703094043143021 		0.17077240160957896  0.20327216728012837 		Uiso   ? 		O 		-0.58710
O 1.0  		0.7002104197017917 		0.6686132103248602  0.20365812709141973 		Uiso   ? 		O 		-0.58704
O 1.0  		0.19695772675381756 		0.1678280498576897  0.34517672456492676 		Uiso   ? 		O 		-0.58710
O 1.0  		0.19867667193608504 		0.6693492982628326  0.3409311666407216 		Uiso   ? 		O 		-0.58704
O 1.0  		0.7035102258648321 		0.16905486308764353  0.34517672456492676 		Uiso   ? 		O 		-0.58710
O 1.0  		0.7005303155332656 		0.6718029247227403  0.347749789973536 		Uiso   ? 		O 		-0.58704
O 1.0  		0.18435750270045934 		0.2858474825792522  0.3225337489691657 		Uiso   ? 		O 		-0.58711
O 1.0  		0.17844207577860008 		0.7844243792325057  0.31777357796323863 		Uiso   ? 		O 		-0.92972
O 1.0  		0.681264610120085 		0.28265776818137206  0.3221477891578743 		Uiso   ? 		O 		-0.92971
O 1.0  		0.6795596408224956 		0.7854058298164688  0.32369162840303983 		Uiso   ? 		O 		-0.61067
O 1.0  		0.3875057038303803 		0.014721758759446462  0.20198563457582375 		Uiso   ? 		O 		-0.92972
O 1.0  		0.3883570930776338 		0.5128079301207185  0.20031314206022774 		Uiso   ? 		O 		-0.92971
O 1.0  		0.8871182424222733 		0.01226813229953872  0.20468735325486342 		Uiso   ? 		O 		-0.92972
O 1.0  		0.8917879782945699 		0.5150161939346355  0.20275755419840652 		Uiso   ? 		O 		-0.92971
O 1.0  		0.3824036185485122 		0.00834232996368633  0.34440480494234404 		Uiso   ? 		O 		-0.61069
O 1.0  		0.3905653287374893 		0.5172244577485524  0.34607729745794 		Uiso   ? 		O 		-0.55471
O 1.0  		0.8861520784509627 		0.007360879379723231  0.34376153859019176 		Uiso   ? 		O 		-0.92972
O 1.0  		0.8907014557103379 		0.5162430071645894  0.3445334582127745 		Uiso   ? 		O 		-0.92971
O 1.0  		0.2968284810506972 		0.07900677200902935  0.19928391589678404 		Uiso   ? 		O 		-0.92972
O 1.0  		0.2955549685746554 		0.5770929433703014  0.20031314206022774 		Uiso   ? 		O 		-0.92971
O 1.0  		0.7938670658520516 		0.07777995877907548  0.20288620746883695 		Uiso   ? 		O 		-0.92972
O 1.0  		0.7957568342383685 		0.5770929433703014  0.20262890092797603 		Uiso   ? 		O 		-0.92971
O 1.0  		0.29646923939690256 		0.07998822259299246  0.34543403110578774 		Uiso   ? 		O 		-0.61067
O 1.0  		0.2972243417538189 		0.5829816468740799  0.3459486441875096 		Uiso   ? 		O 		-0.58406
O 1.0  		0.7976349478859667 		0.0785160467170478  0.34762113670310557 		Uiso   ? 		O 		-0.61069
O 1.0  		0.7975312919307169 		0.5797919324761999  0.3469778703509533 		Uiso   ? 		O 		-0.61067
O 1.0  		0.39270407600258556 		0.01619393463539111  0.2660549632501933 		Uiso   ? 		O 		-0.58406
O 1.0  		0.3939410997721774 		0.5184512709785063  0.26901398847009395 		Uiso   ? 		O 		-0.61069
O 1.0  		0.8901019024577346 		0.01398567082147414  0.2664409230614847 		Uiso   ? 		O 		-0.61064
O 1.0  		0.8853299391881237 		0.5105996663068015  0.2666982296023456 		Uiso   ? 		O 		-0.58420
O 1.0  		0.2968942197415616 		0.07998822259299246  0.26862802865880253 		Uiso   ? 		O 		-0.61070
O 1.0  		0.29585959030639297 		0.5832270095200707  0.26798476230665025 		Uiso   ? 		O 		-0.58277
O 1.0  		0.7964650913651745 		0.07532633231916773  0.27004321463353764 		Uiso   ? 		O 		-0.61064
O 1.0  		0.7930097360978209 		0.574148591618412  0.26888533519966346 		Uiso   ? 		O 		-0.58420
O 1.0  		0.11546242976153409 		0.17567965452939446  0.14717934137244734 		Uiso   ? 		O 		-0.61071
O 1.0  		0.11461621877611072 		0.6801452546864265  0.14807991426546058 		Uiso   ? 		O 		-0.58277
O 1.0  		0.6175614328764765 		0.17862400628128375  0.14653607502029506 		Uiso   ? 		O 		-0.58406
O 1.0  		0.6131334371609239 		0.6772009029345373  0.14627876847943413 		Uiso   ? 		O 		-0.55471
O 1.0  		0.32781341466745556 		0.33222102267150855  0.16570541231443375 		Uiso   ? 		O 		-0.60771
O 1.0  		0.3255848569889106 		0.8334969084306605  0.16390426652840728 		Uiso   ? 		O 		-0.60031
O 1.0  		0.8261445357484829 		0.33442928648542547  0.16544810577357283 		Uiso   ? 		O 		-0.60751
O 1.0  		0.8258436637206401 		0.8327608204926883  0.16827847772304297 		Uiso   ? 		O 		-0.60770
O 1.0  		0.32657134297891055 		0.33271174796349007  0.30992572846698047 		Uiso   ? 		O 		-0.60031
O 1.0  		0.3262639944741793 		0.8357051722445776  0.3037503714863184 		Uiso   ? 		O 		-0.60751
O 1.0  		0.8278532547499671 		0.3361468250073609  0.3076099695992322 		Uiso   ? 		O 		-0.60748
O 1.0  		0.8238085724107934 		0.8325154578466974  0.30773862286966264 		Uiso   ? 		O 		-0.60043
O 1.0  		0.13522412944716936 		0.2883011090391599  0.16107389457893714 		Uiso   ? 		O 		-0.60778
O 1.0  		0.13252244797879675 		0.7920306212582198  0.16493349269185098 		Uiso   ? 		O 		-0.59943
O 1.0  		0.634076517763193 		0.28560211993326134  0.16557675904400326 		Uiso   ? 		O 		-0.60747
O 1.0  		0.6324854306016365 		0.7868780056924134  0.159916015145063 		Uiso   ? 		O 		-0.60043
O 1.0  		0.13475100565734172 		0.29075473549906766  0.3112122611712851 		Uiso   ? 		O 		-0.60777
O 1.0  		0.13181923877094376 		0.7910491706742566  0.30413633129760975 		Uiso   ? 		O 		-0.59947
O 1.0  		0.6322539166256758 		0.2853567572872706  0.30876784903310633 		Uiso   ? 		O 		-0.58406
O 1.0  		0.6332631761232018 		0.790558445382275  0.3106976480895633 		Uiso   ? 		O 		-0.58420
O 1.0  		0.27398668845524077 		0.28363921876533515  0.17754151319403613 		Uiso   ? 		O 		-0.58276
O 1.0  		0.27227292153480354 		0.7846697418784965  0.1767695935714534 		Uiso   ? 		O 		-0.58420
O 1.0  		0.7734043321205002 		0.28462066934929825  0.1783134328166189 		Uiso   ? 		O 		-0.58278
O 1.0  		0.7710442970602263 		0.7839336539405242  0.17959996552092353 		Uiso   ? 		O 		-0.58420
O 1.0  		0.18117370482646677 		0.13838453233879675  0.1645475328805596 		Uiso   ? 		O 		-0.58278
O 1.0  		0.176068892771605 		0.6411325939738934  0.16544810577357283 		Uiso   ? 		O 		-0.58420
O 1.0  		0.6824468189746754 		0.14010207086073218  0.16429022633969867 		Uiso   ? 		O 		-0.58272
O 1.0  		0.6762050197444536 		0.6401511433899304  0.16364695998754636 		Uiso   ? 		O 		-0.55471
O 1.0  		0.17843772545472658 		0.143537147904603  0.30709535651751035 		Uiso   ? 		O 		-0.58406
O 1.0  		0.17841508229007774 		0.6428501324958289  0.30246383878201377 		Uiso   ? 		O 		-0.61067
O 1.0  		0.6830602177690797 		0.14132888409068603  0.30851054249224547 		Uiso   ? 		O 		-0.58406
O 1.0  		0.676973967643171 		0.6421140445578566  0.31108360790085465 		Uiso   ? 		O 		-1.13805
O 1.0  		0.30638081626962044 		0.9956816174305624  0.2890838986572458 		Uiso   ? 		O 		-1.13812
O 1.0  		0.30656780616143037 		0.4988222592992443  0.28934120519810674 		Uiso   ? 		O 		-1.13805
O 1.0  		0.801414857960601 		0.9883207380508391  0.29255753695886827 		Uiso   ? 		O 		-1.13812
O 1.0  		0.8025240237094818 		0.48778094022965945  0.2920429238771464 		Uiso   ? 		O 		-0.61069
O 1.0  		0.11503097293998654 		0.18034154480321918  0.28934120519810674 		Uiso   ? 		O 		-1.13806
O 1.0  		0.11332368249643776 		0.6767101776425557  0.2848383407330406 		Uiso   ? 		O 		-1.13812
O 1.0  		0.6189678512921823 		0.18058690744920994  0.2892125519276763 		Uiso   ? 		O 		-1.13804
O 1.0  		0.6124061562304868 		0.6774462655805281  0.2897271650093981 		Uiso   ? 		O 		-1.13799
O 1.0  		0.4613881196521503 		0.19776229266856415  0.1605592814972153 		Uiso   ? 		O 		-1.13804
O 1.0  		0.4594049214913671 		0.6995289037196978  0.16107389457893714 		Uiso   ? 		O 		-0.55463
O 1.0  		0.9581748684588545 		0.20070664442045344  0.16326100017625497 		Uiso   ? 		O 		-1.13799
O 1.0  		0.9633177281209786 		0.7010010795956425  0.16441887961012913 		Uiso   ? 		O 		-1.13805
O 1.0  		0.4610705449666357 		0.2009520070664442  0.3095397686556891 		Uiso   ? 		O 		-1.13799
O 1.0  		0.4619811964278651 		0.704681519285504  0.3056801705427753 		Uiso   ? 		O 		-1.13804
O 1.0  		0.96421440369753 		0.20046128177446265  0.3118555275234374 		Uiso   ? 		O 		-1.13799
O 1.0  		0.9622071338141625 		0.7034547060555502  0.30529421073148394 		Uiso   ? 		O 		-0.55540
O 1.0  		0.2751806166986172 		0.28560211993326134  0.3225337489691657 		Uiso   ? 		O 		-0.55463
O 1.0  		0.2744154185037947 		0.7881048189223674  0.3193174172084042 		Uiso   ? 		O 		-0.55538
O 1.0  		0.7788809331558992 		0.287074295809206  0.3225337489691657 		Uiso   ? 		O 		-0.55463
O 1.0  		0.7728997675431757 		0.7846697418784965  0.3221477891578743 		Uiso   ? 		O 		-1.13804
O 1.0  		0.4114490334667934 		0.007360879379723231  0.1631323469058245 		Uiso   ? 		O 		-0.55535
O 1.0  		0.41507159257717874 		0.5071645892629307  0.16184581420151992 		Uiso   ? 		O 		-0.55463
O 1.0  		0.9128360297510348 		0.007606242025714006  0.16557675904400326 		Uiso   ? 		O 		-0.55537
O 1.0  		0.9152493865183076 		0.5083914024928845  0.16377561325797682 		Uiso   ? 		O 		-0.55463
O 1.0  		0.41110506591273505 		0.005397978211797036  0.30323575840459654 		Uiso   ? 		O 		-0.55534
O 1.0  		0.4125152340323358 		0.5118264795367553  0.3076099695992322 		Uiso   ? 		O 		-1.13799
O 1.0  		0.9134647026451757 		0.005888703503778585  0.30310710513416605 		Uiso   ? 		O 		-0.55463
O 1.0  		0.9114398375161124 		0.5054470507409953  0.3043936378384707 		Uiso   ? 		O 		-0.55549
O 1.0  		0.2669085467595239 		0.05741485916184121  0.16133120111979807 		Uiso   ? 		O 		-0.55471
O 1.0  		0.2668113672811628 		0.5540288546471686  0.16326100017625497 		Uiso   ? 		O 		-0.61064
O 1.0  		0.764306373214673 		0.055206595347924235  0.16236042728324176 		Uiso   ? 		O 		-0.55471
O 1.0  		0.7704065992252598 		0.5586907449209934  0.16377561325797682 		Uiso   ? 		O 		-0.55471
O 1.0  		0.26831496517522985 		0.0593777603297674  0.3054228640019144 		Uiso   ? 		O 		-0.61071
O 1.0  		0.2671159890129003 		0.5601629207969379  0.3063234368949276 		Uiso   ? 		O 		-0.98192
O 1.0  		0.7695135430097261 		0.0583963097458043  0.30773862286966264 		Uiso   ? 		O 		-0.98194
O 1.0  		0.7657776377332193 		0.5498576896653254  0.3056801705427753 		Uiso   ? 		O 		-0.98193
O 1.0  		0.30107503843827077 		0.9910197271567377  0.3222764424283047 		Uiso   ? 		O 		-0.98194
O 1.0  		0.3021119890193987 		0.49416036902541954  0.32369162840303983 		Uiso   ? 		O 		-0.98193
O 1.0  		0.8022078775819027 		0.9890568259888115  0.32562142745949674 		Uiso   ? 		O 		-0.98194
O 1.0  		0.8045350432967442 		0.4892531161056041  0.32472085456648353 		Uiso   ? 		O 		-1.13804
O 1.0  		0.2673172790824672 		0.012758857591520267  0.15875813571118885 		Uiso   ? 		O 		-0.98199
O 1.0  		0.2677020210167816 		0.5086367651388752  0.16274638709453312 		Uiso   ? 		O 		-0.98193
O 1.0  		0.7677885759865263 		0.012022769653547946  0.1626177338241027 		Uiso   ? 		O 		-0.98200
O 1.0  		0.7677330634764452 		0.5108450289527923  0.1631323469058245 		Uiso   ? 		O 		-0.98194
O 1.0  		0.26408825952924414 		0.010550593777603298  0.3059374770836362 		Uiso   ? 		O 		-0.56721
O 1.0  		0.26499891099047357 		0.5142801059966632  0.30580882381320573 		Uiso   ? 		O 		-0.91724
O 1.0  		0.7659900465715935 		0.010550593777603298  0.3090251555739673 		Uiso   ? 		O 		-0.60244
O 1.0  		0.7652137296079635 		0.5049563254490136  0.3094111153852586 		Uiso   ? 		O 		-0.91724
O 1.0  		0.4577640673337623 		0.05324369417999804  0.1631323469058245 		Uiso   ? 		O 		-0.91715
O 1.0  		0.4603899142733644 		0.5540288546471686  0.1614598543902285 		Uiso   ? 		O 		-0.91724
O 1.0  		0.9574029987941989 		0.05594268328589656  0.16699194501873835 		Uiso   ? 		O 		-0.98153
O 1.0  		0.9578951463876579 		0.5550103052311317  0.16930770388648667 		Uiso   ? 		O 		-1.13516
O 1.0  		0.4574441715022884 		0.05005397978211797  0.3019492257002919 		Uiso   ? 		O 		-0.98153
O 1.0  		0.45830667951834914 		0.5562371184610855  0.30645209016535807 		Uiso   ? 		O 		-0.98153
O 1.0  		0.9599024162710253 		0.05201688095004417  0.3027211453228747 		Uiso   ? 		O 		-0.56686
O 1.0  		0.9584821523135185 		0.5510845028952792  0.3015632658890005 		Uiso   ? 		O 		-0.56684
O 1.0  		0.4184586283646968 		0.20242418294238887  0.16236042728324176 		Uiso   ? 		O 		-0.56684
O 1.0  		0.4151259528562241 		0.701491804887624  0.1605592814972153 		Uiso   ? 		O 		-0.59988
O 1.0  		0.9118848802364492 		0.201197369712435  0.16403291979883775 		Uiso   ? 		O 		-0.59988
O 1.0  		0.9192183803127331 		0.702473255471587  0.16493349269185098 		Uiso   ? 		O 		-0.59987
O 1.0  		0.4163665959868337 		0.20291490823437042  0.31172687425300694 		Uiso   ? 		O 		-0.60243
O 1.0  		0.4183813652779908 		0.7088526842673472  0.3072240097879408 		Uiso   ? 		O 		-0.59988
O 1.0  		0.9194535136497115 		0.20316027088036118  0.31108360790085465 		Uiso   ? 		O 		-0.56685
O 1.0  		0.9161055640415023 		0.7051722445774856  0.30709535651751035 		Uiso   ? 		O 		-0.56684
O 1.0  		0.1332888797386103 		0.13568554323289825  0.16531945250314234 		Uiso   ? 		O 		-0.56684
O 1.0  		0.13240332293086632 		0.6443223083717735  0.16776386464132112 		Uiso   ? 		O 		-1.13516
O 1.0  		0.6364920006834804 		0.14083815879870448  0.1648048394214205 		Uiso   ? 		O 		-0.56730
O 1.0  		0.6296696720042866 		0.6401511433899304  0.1651907992327119 		Uiso   ? 		O 		-0.56739
O 1.0  		0.13079825988463184 		0.14132888409068603  0.30683804997664943 		Uiso   ? 		O 		-0.59953
O 1.0  		0.13305606754759128 		0.6413779566198842  0.3019492257002919 		Uiso   ? 		O 		-0.56746
O 1.0  		0.6359684123025249 		0.13936598292275984  0.30503690419062296 		Uiso   ? 		O 		-0.59953
O 1.0  		0.631558011832668 		0.6413779566198842  0.3069667032470799 		Uiso   ? 		O 		-0.60206
O 1.0  		0.18010867317584808 		0.3334478359014624  0.1645475328805596 		Uiso   ? 		O 		-0.60206
O 1.0  		0.17995687377542982 		0.8371773481205221  0.16506214596228141 		Uiso   ? 		O 		-0.60206
O 1.0  		0.6772458660134991 		0.33369319854745316  0.1662200253961556 		Uiso   ? 		O 		-0.60206
O 1.0  		0.6772472945714345 		0.8317793699087251  0.16094524130850668 		Uiso   ? 		O 		-0.60243
O 1.0  		0.17887539911015102 		0.3356560997153794  0.3096684219261196 		Uiso   ? 		O 		-0.56720
O 1.0  		0.17782317442928666 		0.8354598095985867  0.30246383878201377 		Uiso   ? 		O 		-0.56740
O 1.0  		0.6785360811472126 		0.3307488467955639  0.30889650230353677 		Uiso   ? 		O 		-0.56734
O 1.0  		0.6789407394731821 		0.8364412601825498  0.30876784903310633 		Uiso   ? 		O 		-0.59953
O 1.0  		0.328099467231518 		0.2873196584551968  0.16441887961012913 		Uiso   ? 		O 		-0.56743
O 1.0  		0.3263287592430643 		0.7890862695063304  0.16377561325797682 		Uiso   ? 		O 		-0.59953
O 1.0  		0.8256046993458115 		0.2883011090391599  0.16596271885529468 		Uiso   ? 		O 		-1.13516
O 1.0  		0.8251811475590879 		0.7863872804004319  0.16789251791175158 		Uiso   ? 		O 		-0.58277
O 1.0  		0.327126826783319 		0.287074295809206  0.30915380884439775 		Uiso   ? 		O 		-0.58279
O 1.0  		0.326729667865139 		0.7903130827362843  0.30670939670621894 		Uiso   ? 		O 		-0.58279
O 1.0  		0.8297165489337849 		0.2910000981450584  0.30773862286966264 		Uiso   ? 		O 		-0.58279
O 1.0  		0.8236937163527811 		0.7863872804004319  0.3082532359513845 		Uiso   ? 		O 		-0.58278
O 1.0  		0.42724331389996106 		0.10992246540386692  0.16068793476764578 		Uiso   ? 		O 		-0.58279
O 1.0  		0.42530825918434645 		0.6092354499950928  0.1614598543902285 		Uiso   ? 		O 		-0.58355
O 1.0  		0.9262447748434093 		0.11262145450976545  0.16441887961012913 		Uiso   ? 		O 		-0.58356
O 1.0  		0.9277665039530835 		0.611198351163019  0.16403291979883775 		Uiso   ? 		O 		-0.56721
O 1.0  		0.42916452307377473 		0.11164000392580235  0.3082532359513845 		Uiso   ? 		O 		-0.58355
O 1.0  		0.4274114103310168 		0.6168416920208067  0.30915380884439775 		Uiso   ? 		O 		-0.58356
O 1.0  		0.9266280882197881 		0.11041319069584847  0.30709535651751035 		Uiso   ? 		O 		-0.58354
O 1.0  		0.9282572229886068 		0.6121798017469822  0.30516555746105345 		Uiso   ? 		O 		-0.56721
O 1.0  		0.2906233655198697 		0.23064088723132792  0.14679338156115598 		Uiso   ? 		O 		-0.72725
O 1.0  		0.2883619384958926 		0.7314260476984984  0.1460214619385732 		Uiso   ? 		O 		-0.58355
O 1.0  		0.7886193166696868 		0.2326037883992541  0.14859452734718243 		Uiso   ? 		O 		-0.92578
O 1.0  		0.790027163643328 		0.7326528609284524  0.1487231806176129 		Uiso   ? 		O 		-0.55543
O 1.0  		0.35692666210458257 		0.11335754244773777  0.161588507660659 		Uiso   ? 		O 		-0.92578
O 1.0  		0.35698503173053436 		0.6107076258710374  0.1612025478493676 		Uiso   ? 		O 		-0.92578
O 1.0  		0.8530166781803222 		0.11065855334183924  0.16570541231443375 		Uiso   ? 		O 		-0.92578
O 1.0  		0.8592877273949584 		0.6119344391009913  0.16467618615099006 		Uiso   ? 		O 		-0.92578
O 1.0  		0.3583571522428727 		0.11409363038571009  0.3072240097879408 		Uiso   ? 		O 		-0.92578
O 1.0  		0.3576336210163303 		0.6188045931887329  0.3079959294105236 		Uiso   ? 		O 		-0.58306
O 1.0  		0.8597922919722829 		0.11188536657179313  0.3086391957626759 		Uiso   ? 		O 		-0.58306
O 1.0  		0.8547356233625896 		0.6121798017469822  0.30786727614009307 		Uiso   ? 		O 		-0.56223
O 1.0  		0.3567367827718682 		0.04073019923446855  0.16081658803807622 		Uiso   ? 		O 		-0.72731
O 1.0  		0.3554873420184107 		0.5375895573657866  0.161588507660659 		Uiso   ? 		O 		-0.60243
O 1.0  		0.8540119294681364 		0.038276572774560806  0.16506214596228141 		Uiso   ? 		O 		-0.58477
O 1.0  		0.8558118874410047 		0.5378349200117775  0.1651907992327119 		Uiso   ? 		O 		-0.55543
O 1.0  		0.3545790117031407 		0.040239473942487  0.30670939670621894 		Uiso   ? 		O 		-0.58306
O 1.0  		0.3561271336813588 		0.5439689861615469  0.3069667032470799 		Uiso   ? 		O 		-0.60244
O 1.0  		0.8533897330508842 		0.03533222102267151  0.3069667032470799 		Uiso   ? 		O 		-0.58477
O 1.0  		0.8542675151666814 		0.5385710079497498  0.3065807434357885 		Uiso   ? 		O 		-0.59953
O 1.0  		0.286816137663634 		0.23407596427519875  0.2920429238771464 		Uiso   ? 		O 		-0.59953
O 1.0  		0.28881331170909535 		0.7365786632643047  0.2908850444432723 		Uiso   ? 		O 		-0.59987
O 1.0  		0.7899271270490961 		0.23309451369123566  0.2917856173362855 		Uiso   ? 		O 		-0.60206
O 1.0  		0.7828835105747248 		0.7306899597605262  0.2941013762040338 		Uiso   ? 		O 		-0.59988
O 1.0  		0.342266187437825 		0.07213661792128767  0.24830081193078968 		Uiso   ? 		O 		-0.72750
O 1.0  		0.34113294996635984 		0.5739032289724213  0.2485581184716506 		Uiso   ? 		O 		-0.56232
O 1.0  		0.839736229060727 		0.06624791441750909  0.24971599790552476 		Uiso   ? 		O 		-0.60207
O 1.0  		0.8394441546557321 		0.5662969869467073  0.24971599790552476 		Uiso   ? 		O 		-0.56232
O 1.0  		0.23834344638692656 		0.3003238786927078  0.1624890805536722 		Uiso   ? 		O 		-0.58306
O 1.0  		0.23624636609011035 		0.8035626656197861  0.1628750403649636 		Uiso   ? 		O 		-0.58478
O 1.0  		0.7367403061588184 		0.30351359309058795  0.1648048394214205 		Uiso   ? 		O 		-0.56720
O 1.0  		0.7360144537863165 		0.8018451270978506  0.16429022633969867 		Uiso   ? 		O 		-0.58478
O 1.0  		0.23966885201203172 		0.30424968102856026  0.3083818892218149 		Uiso   ? 		O 		-0.55543
O 1.0  		0.23603387591778083 		0.8035626656197861  0.3065807434357885 		Uiso   ? 		O 		-0.58478
O 1.0  		0.7367884496039868 		0.3010599666306802  0.30748131632880177 		Uiso   ? 		O 		-0.56721
O 1.0  		0.7344700815119932 		0.802581215035823  0.30812458268095405 		Uiso   ? 		O 		-0.58477
O 1.0  		0.23797394622731494 		0.22818726077142018  0.16377561325797682 		Uiso   ? 		O 		-0.56235
O 1.0  		0.23510791803178138 		0.7294631465305722  0.1624890805536722 		Uiso   ? 		O 		-0.58306
O 1.0  		0.7381276684458594 		0.23064088723132792  0.1651907992327119 		Uiso   ? 		O 		-0.56222
O 1.0  		0.7336339340394425 		0.7282363333006183  0.16544810577357283 		Uiso   ? 		O 		-0.56227
O 1.0  		0.23708463971567612 		0.23235842575326332  0.3082532359513845 		Uiso   ? 		O 		-0.58306
O 1.0  		0.2359097352759309 		0.73191677299048  0.3055515172723448 		Uiso   ? 		O 		-1.13516
O 1.0  		0.7395340868615653 		0.2326037883992541  0.3090251555739673 		Uiso   ? 		O 		-1.13516
O 1.0  		0.7348366599056668 		0.73191677299048  0.3083818892218149 		Uiso   ? 		O 		-1.13516
O 1.0  		0.1625640067729162 		0.22696044754146633  0.1631323469058245 		Uiso   ? 		O 		-0.55402
O 1.0  		0.1651921748584776 		0.734125036804397  0.1631323469058245 		Uiso   ? 		O 		-1.12612
O 1.0  		0.6675809312324555 		0.23064088723132792  0.1631323469058245 		Uiso   ? 		O 		-1.12612
O 1.0  		0.6633742233120804 		0.7309353224065169  0.16171716093108943 		Uiso   ? 		O 		-1.12612
O 1.0  		0.164837981123636 		0.23235842575326332  0.30709535651751035 		Uiso   ? 		O 		-1.12613
O 1.0  		0.16099051485705562 		0.7316714103444892  0.3036217182158879 		Uiso   ? 		O 		-1.12614
O 1.0  		0.6654472318863124 		0.22892334870939252  0.30851054249224547 		Uiso   ? 		O 		-0.55402
O 1.0  		0.6621321516235354 		0.7314260476984984  0.3082532359513845 		Uiso   ? 		O 		-0.55402
O 1.0  		0.23575519241863088 		0.35209539699676123  0.14589280866814275 		Uiso   ? 		O 		-0.55402
O 1.0  		0.2321049422246436 		0.8543527333398765  0.14524954231599044 		Uiso   ? 		O 		-0.55402
O 1.0  		0.7330150650151628 		0.3525861222887428  0.1483372208063215 		Uiso   ? 		O 		-0.60243
O 1.0  		0.7342914346070752 		0.8506722936500148  0.1466647282907255 		Uiso   ? 		O 		-0.55402
O 1.0  		0.19931380147610656 		0.3314849347335362  0.2699145613631071 		Uiso   ? 		O 		-0.72747
O 1.0  		0.20246323679666423 		0.8337422710766514  0.2660549632501933 		Uiso   ? 		O 		-0.55543
O 1.0  		0.7005517251329236 		0.3263323191677299  0.2699145613631071 		Uiso   ? 		O 		-0.72716
O 1.0  		0.6970570240432492 		0.8293257434488174  0.2717157071491336 		Uiso   ? 		O 		-0.55543
O 1.0  		0.232992820178347 		0.35209539699676123  0.291656964065855 		Uiso   ? 		O 		-0.72713
O 1.0  		0.2360195757400238 		0.8541073706938856  0.2880546724938021 		Uiso   ? 		O 		-0.55543
O 1.0  		0.7328747900105861 		0.34890568259888116  0.291656964065855 		Uiso   ? 		O 		-0.98153
O 1.0  		0.7333187941588762 		0.8504269310040241  0.29217157714757686 		Uiso   ? 		O 		-1.12611
O 1.0  		0.47636788953040315 		0.10575130042202376  0.14615011520900367 		Uiso   ? 		O 		-0.98153
O 1.0  		0.4731995607490914 		0.6072725488271666  0.1449922357751295 		Uiso   ? 		O 		-0.98153
O 1.0  		0.9751239909560895 		0.10795956423594073  0.14846587407675196 		Uiso   ? 		O 		-0.91718
O 1.0  		0.9744069362064356 		0.6080086367651389  0.15052432640363933 		Uiso   ? 		O 		-0.91726
O 1.0  		0.45749744420036537 		0.08415938757483563  0.26695553614320655 		Uiso   ? 		O 		-0.97332
O 1.0  		0.45626559869260375 		0.5844538227500247  0.2692712950109548 		Uiso   ? 		O 		-0.97351
O 1.0  		0.9543781587514473 		0.07581705761114928  0.2683707221179416 		Uiso   ? 		O 		-1.12392
O 1.0  		0.9512579734153042 		0.5748846795563843  0.26502573708674965 		Uiso   ? 		O 		-0.97464
O 1.0  		0.47791458295068573 		0.11139464127981158  0.2898558182798286 		Uiso   ? 		O 		-0.97358
O 1.0  		0.4758087050310216 		0.6129158896849545  0.2917856173362855 		Uiso   ? 		O 		-0.97598
O 1.0  		0.9742499585441873 		0.1091863774658946  0.28856928557552397 		Uiso   ? 		O 		-0.95788
O 1.0  		0.9739162171709121 		0.6070271861811759  0.28676813978949756 		Uiso   ? 		O 		-0.91942
O 1.0  		0.2344626561389579 		0.34866031995289043  0.17921400570963214 		Uiso   ? 		O 		-0.56854
O 1.0  		0.23565153646338127 		0.8533712827559133  0.1783134328166189 		Uiso   ? 		O 		-0.59545
O 1.0  		0.7345747113892223 		0.34890568259888116  0.1823016841999632 		Uiso   ? 		O 		-0.59668
O 1.0  		0.7303768010916951 		0.8509176562960056  0.18024323187307584 		Uiso   ? 		O 		-0.56447
O 1.0  		0.20068502940042088 		0.3265776818137207  0.19992718224893638 		Uiso   ? 		O 		-0.56220
O 1.0  		0.2029933016545083 		0.8305525566787713  0.20057044860108866 		Uiso   ? 		O 		-0.56216
O 1.0  		0.6998156465796384 		0.3248601432917853  0.20417274017314158 		Uiso   ? 		O 		-0.56871
O 1.0  		0.6957732853864242 		0.827608204926882  0.20185698130539326 		Uiso   ? 		O 		-0.56910
O 1.0  		0.23481542131586408 		0.352340759642752  0.32562142745949674 		Uiso   ? 		O 		-0.56804
O 1.0  		0.23132719670307833 		0.8506722936500148  0.3221477891578743 		Uiso   ? 		O 		-1.11899
O 1.0  		0.7345089726983578 		0.34792423201491807  0.32562142745949674 		Uiso   ? 		O 		-0.56452
O 1.0  		0.7335072126086215 		0.8516537442339779  0.32665065362294043 		Uiso   ? 		O 		-0.59596
O 1.0  		0.20298307547372502 		0.3307488467955639  0.34749248343267514 		Uiso   ? 		O 		-0.59474
O 1.0  		0.19680469378840826 		0.825399941112965  0.3435042320493308 		Uiso   ? 		O 		-0.60596
O 1.0  		0.6982055356144508 		0.3246147806457945  0.3456913376466486 		Uiso   ? 		O 		-0.60576
O 1.0  		0.701731807834499 		0.8293257434488174  0.3485217095961188 		Uiso   ? 		O 		-0.54353
O 1.0  		0.4748804583240964 		0.10575130042202376  0.17895669916877122 		Uiso   ? 		O 		-0.55376
O 1.0  		0.47364861281633475 		0.6060457355972128  0.17792747300532755 		Uiso   ? 		O 		-0.56331
O 1.0  		0.9711195470272608 		0.10845028952792228  0.1826876440112546 		Uiso   ? 		O 		-0.56947
O 1.0  		0.9736227142079819 		0.6089900873491021  0.18114380476608904 		Uiso   ? 		O 		-0.56619
O 1.0  		0.4508005220530461 		0.07459024438119541  0.20069910187151913 		Uiso   ? 		O 		-0.55223
O 1.0  		0.45035289854373817 		0.5739032289724213  0.19966987570807546 		Uiso   ? 		O 		-1.09612
O 1.0  		0.9472104339602597 		0.07508096967317696  0.2040440869027111 		Uiso   ? 		O 		-0.56374
O 1.0  		0.9539722022104195 		0.5773383060162922  0.2023715943871151 		Uiso   ? 		O 		-0.60541
O 1.0  		0.4780261439407592 		0.10354303660810679  0.323177015321318 		Uiso   ? 		O 		-0.60655
O 1.0  		0.4768623582698214 		0.611198351163019  0.32304836205088755 		Uiso   ? 		O 		-0.58017
O 1.0  		0.9776410036786116 		0.10746883894395919  0.32201913588744385 		Uiso   ? 		O 		-0.58231
O 1.0  		0.9761966679985206 		0.6077632741191481  0.3202179901014174 		Uiso   ? 		O 		-0.58341
O 1.0  		0.4520907371867597 		0.07164589262930611  0.3456913376466486 		Uiso   ? 		O 		-0.58303
O 1.0  		0.4523815133766963 		0.5788104818922367  0.3453053778353573 		Uiso   ? 		O 		-0.58188
O 1.0  		0.955162380749901 		0.07483560702718618  0.34363288531976127 		Uiso   ? 		O 		-0.59447
O 1.0  		0.9539722022104195 		0.5773383060162922  0.3426036591563176 		Uiso   ? 		O 		-0.58184
O 1.0  		0.29554792380282185 		0.018647561095298852  0.2684993753883721 		Uiso   ? 		O 		-0.57922
O 1.0  		0.2941276598453149 		0.5177151830405339  0.26798476230665025 		Uiso   ? 		O 		-0.58115
O 1.0  		0.797210827804298 		0.013494945529492592  0.27081513425612036 		Uiso   ? 		O 		-1.09728
O 1.0  		0.7946295049488468 		0.5110903915987831  0.26939994828138525 		Uiso   ? 		O 		-0.58082
O 1.0  		0.4054919719016877 		0.07704387084110316  0.24727158576734598 		Uiso   ? 		O 		-0.58119
O 1.0  		0.40281204100993995 		0.5731671410344489  0.2492013848238029 		Uiso   ? 		O 		-0.57614
O 1.0  		0.9040332620090853 		0.07287270585925999  0.24971599790552476 		Uiso   ? 		O 		-0.57942
O 1.0  		0.8978396062240321 		0.5704681519285505  0.2495873446350943 		Uiso   ? 		O 		-0.91981
O 1.0  		0.29235859104888656 		0.35013249582883504  0.14679338156115598 		Uiso   ? 		O 		-0.91758
O 1.0  		0.2866556542993569 		0.8487093924820887  0.14743664791330827 		Uiso   ? 		O 		-0.92220
O 1.0  		0.7904772219575844 		0.352340759642752  0.1483372208063215 		Uiso   ? 		O 		-0.90762
O 1.0  		0.7894819383447365 		0.8514083815879872  0.14923779369933474 		Uiso   ? 		O 		-0.92012
O 1.0  		0.2989957640212403 		0.33025812150358236  0.2695286015518158 		Uiso   ? 		O 		-0.55228
O 1.0  		0.2988504410977105 		0.8293257434488174  0.2684993753883721 		Uiso   ? 		O 		-0.59170
O 1.0  		0.7973004922337241 		0.3273137697516931  0.27184436041956406 		Uiso   ? 		O 		-0.91298
O 1.0  		0.7941715092747329 		0.8246638531749928  0.2705578277152595 		Uiso   ? 		O 		-0.58586
O 1.0  		0.2916489053641451 		0.35381293551869664  0.29230023041800735 		Uiso   ? 		O 		-0.59088
O 1.0  		0.28809494206049496 		0.8511630189419963  0.289984471550259 		Uiso   ? 		O 		-1.12709
O 1.0  		0.7874606925766909 		0.35013249582883504  0.29255753695886827 		Uiso   ? 		O 		-0.58845
O 1.0  		0.7871116771036795 		0.8509176562960056  0.291656964065855 		Uiso   ? 		O 		-0.59292
O 1.0  		0.47665821108438367 		0.16243007164589265  0.14319108998910307 		Uiso   ? 		O 		-0.60540
O 1.0  		0.4770364765418096 		0.6629698694670724  0.14524954231599044 		Uiso   ? 		O 		-0.59609
O 1.0  		0.9757823517867128 		0.16537442339778194  0.1457641553977123 		Uiso   ? 		O 		-0.59182
O 1.0  		0.9773281526189712 		0.6627245068210816  0.14717934137244734 		Uiso   ? 		O 		-0.58769
O 1.0  		0.4583974961788108 		0.17690646775934832  0.27261628004214683 		Uiso   ? 		O 		-0.55222
O 1.0  		0.4572795328070821 		0.6757287270585927  0.2710724407969813 		Uiso   ? 		O 		-0.60584
O 1.0  		0.9562772440466354 		0.17396211600745903  0.2710724407969813 		Uiso   ? 		O 		-0.59609
O 1.0  		0.9536149084005836 		0.6735204632446757  0.2666982296023456 		Uiso   ? 		O 		-0.58791
O 1.0  		0.47593972777679433 		0.16439297281381884  0.2951306023674775 		Uiso   ? 		O 		-0.56520
O 1.0  		0.47531248344058896 		0.6641966826970263  0.2939727229336034 		Uiso   ? 		O 		-0.54567
O 1.0  		0.9764022270580056 		0.1619393463539111  0.29358676312231197 		Uiso   ? 		O 		-0.56995
O 1.0  		0.976486989552501 		0.6644420453430171  0.28934120519810674 		Uiso   ? 		O 		-0.55884
O 1.0  		0.2877648200482377 		0.34816959466090885  0.1799859253322149 		Uiso   ? 		O 		-0.55496
O 1.0  		0.28676305995850127 		0.8518991068799686  0.17947131225049306 		Uiso   ? 		O 		-0.54469
O 1.0  		0.7876731827490204 		0.35013249582883504  0.18152976457738046 		Uiso   ? 		O 		-0.54282
O 1.0  		0.7846668795489102 		0.8477279418981255  0.18255899074082413 		Uiso   ? 		O 		-0.58949
O 1.0  		0.2998609988102948 		0.3273137697516931  0.20159967476453236 		Uiso   ? 		O 		-0.58833
O 1.0  		0.29699497061476127 		0.8285896555108451  0.20134236822367144 		Uiso   ? 		O 		-0.55222
O 1.0  		0.7983717407182196 		0.3290313082736284  0.2037867803618502 		Uiso   ? 		O 		-1.10355
O 1.0  		0.7958473589307848 		0.8258906664049466  0.20365812709141973 		Uiso   ? 		O 		-1.11639
O 1.0  		0.28752825815332383 		0.3493964078908627  0.3253641209186358 		Uiso   ? 		O 		-1.11954
O 1.0  		0.28955830154421747 		0.8523898321719503  0.32137586953529157 		Uiso   ? 		O 		-1.12527
O 1.0  		0.7904531502350001 		0.3535675728727059  0.3252354676482054 		Uiso   ? 		O 		-0.59307
O 1.0  		0.7873723107211776 		0.8484640298360979  0.32459220129605304 		Uiso   ? 		O 		-1.12708
O 1.0  		0.29695187508854576 		0.32829522033565617  0.348007096514397 		Uiso   ? 		O 		-1.12760
O 1.0  		0.29258961806385764 		0.8278535675728728  0.3446621114832049 		Uiso   ? 		O 		-0.79092
O 1.0  		0.7954297476510384 		0.32952203356561  0.3487790161369797 		Uiso   ? 		O 		-0.56753
O 1.0  		0.7949821241417303 		0.8288350181568359  0.3485217095961188 		Uiso   ? 		O 		-0.74304
O 1.0  		0.4750874459415168 		0.1580135440180587  0.17561171413757923 		Uiso   ? 		O 		-0.75101
O 1.0  		0.474950920640835 		0.6587987044852293  0.1767695935714534 		Uiso   ? 		O 		-0.83617
O 1.0  		0.9747439726476492 		0.16414761016782808  0.1783134328166189 		Uiso   ? 		O 		-0.82744
O 1.0  		0.9765022636522375 		0.6614976935911278  0.1799859253322149 		Uiso   ? 		O 		-0.71793
O 1.0  		0.4570063518628413 		0.17199921483953284  0.19722546356989668 		Uiso   ? 		O 		-0.55212
O 1.0  		0.45302740821453213 		0.6693492982628326  0.19825468973334037 		Uiso   ? 		O 		-1.12153
O 1.0  		0.9555411654933502 		0.1724899401315144  0.20198563457582375 		Uiso   ? 		O 		-0.55225
O 1.0  		0.9567365222946621 		0.6725390126607126  0.2023715943871151 		Uiso   ? 		O 		-0.55239
O 1.0  		0.47727160987878803 		0.16365688487584654  0.3260073872707881 		Uiso   ? 		O 		-0.95808
O 1.0  		0.47642539889336466 		0.6681224850328786  0.32549277418906625 		Uiso   ? 		O 		-0.88446
O 1.0  		0.977536893087406 		0.1582589066640495  0.326264693811649 		Uiso   ? 		O 		-0.56806
O 1.0  		0.978710499312093 		0.6659142212189617  0.3224050956987352 		Uiso   ? 		O 		-0.94925
O 1.0  		0.4536458549278895 		0.1678280498576897  0.34839305632568834 		Uiso   ? 		O 		-0.97459
O 1.0  		0.4520242195668603 		0.6749926391206204  0.3467205638100923 		Uiso   ? 		O 		-0.97348
O 1.0  		0.9544851911085912 		0.1678280498576897  0.3481357497848274 		Uiso   ? 		O 		-1.13799
O 1.0  		0.953073724773932 		0.6686132103248602  0.3449194180240659 		Uiso   ? 		O 		-0.98200
O 1.0  		0.39667905931291003 		0.18181372067916382  0.2709437875265508 		Uiso   ? 		O 		-0.98194
O 1.0  		0.3933047168361572 		0.678673078810482  0.2684993753883721 		Uiso   ? 		O 		-0.98200
O 1.0  		0.8929639703152835 		0.17567965452939446  0.2703005211743985 		Uiso   ? 		O 		-0.98194
O 1.0  		0.8857800788363356 		0.6695946609088234  0.267084189413637 		Uiso   ? 		O 		-0.98200
O 1.0  		0.29718210649059373 		0.017666110511335754  0.19902660935592312 		Uiso   ? 		O 		-0.98194
O 1.0  		0.29696224725335174 		0.5140347433506723  0.20172832803496282 		Uiso   ? 		O 		-0.61067
O 1.0  		0.7919314428414919 		0.01398567082147414  0.20198563457582375 		Uiso   ? 		O 		-0.61064
O 1.0  		0.7982923024695767 		0.5150161939346355  0.20365812709141973 		Uiso   ? 		O 		-0.98200
O 1.0  		0.2940428973508194 		0.015212484051428011  0.34440480494234404 		Uiso   ? 		O 		-0.98194
O 1.0  		0.29892512339544547 		0.5179605456865248  0.3468492170805228 		Uiso   ? 		O 		-0.98193
O 1.0  		0.7946280763909114 		0.013004220237511042  0.3469778703509533 		Uiso   ? 		O 		-0.98194
O 1.0  		0.7959701846736884 		0.5120718421827462  0.34762113670310557 		Uiso   ? 		O 		-0.61071
O 1.0  		0.3982715750324018 		0.17862400628128375  0.19928391589678404 		Uiso   ? 		O 		-0.98193
O 1.0  		0.39165941537957805 		0.6715575620767495  0.20018448878979728 		Uiso   ? 		O 		-0.98194
O 1.0  		0.8925718593160566 		0.176170379821376  0.20262890092797603 		Uiso   ? 		O 		-0.98193
O 1.0  		0.895802307427215 		0.676464814996565  0.20352947382098927 		Uiso   ? 		O 		-0.61064
O 1.0  		0.3913228168904323 		0.1732260280694867  0.3489076694074102 		Uiso   ? 		O 		-0.98194
O 1.0  		0.38825309614541703 		0.6762194523505741  0.3487790161369797 		Uiso   ? 		O 		-0.60771
O 1.0  		0.8933625577913988 		0.17052703896358817  0.3507088151934366 		Uiso   ? 		O 		-0.60751
O 1.0  		0.8912807515943191 		0.6708214741387771  0.346334603998801 		Uiso   ? 		O 		-0.60771
O 1.0  		0.1357341642543693 		0.16267543429188341  0.20288620746883695 		Uiso   ? 		O 		-1.13805
O 1.0  		0.13890351596658213 		0.6747472764746295  0.2044300467140025 		Uiso   ? 		O 		-0.60751
O 1.0  		0.6379646447510405 		0.16758268721169892  0.20352947382098927 		Uiso   ? 		O 		-0.60747
O 1.0  		0.6350000085192103 		0.6673863970949063  0.20198563457582375 		Uiso   ? 		O 		-0.60778
O 1.0  		0.13982426326571773 		0.17298066542349594  0.34517672456492676 		Uiso   ? 		O 		-0.60747
O 1.0  		0.13774893354552642 		0.6686132103248602  0.3415744329928739 		Uiso   ? 		O 		-1.13812
O 1.0  		0.6406941476458922 		0.16709196191971737  0.34581999091707916 		Uiso   ? 		O 		-0.60778
O 1.0  		0.637893858141223 		0.6693492982628326  0.3469778703509533 		Uiso   ? 		O 		-0.60747
O 1.0  		0.2980151862131838 		0.2632741191481009  0.20352947382098927 		Uiso   ? 		O 		-0.60777
O 1.0  		0.2968250076737021 		0.7657768181372069  0.2014710214941019 		Uiso   ? 		O 		-0.60747
O 1.0  		0.7978008691550855 		0.26499165767003635  0.20365812709141973 		Uiso   ? 		O 		-0.60777
O 1.0  		0.79683845488767 		0.764550004907253  0.2044300467140025 		Uiso   ? 		O 		-0.60771
O 1.0  		0.29710828445584914 		0.26401020708607326  0.3481357497848274 		Uiso   ? 		O 		-0.60751
O 1.0  		0.2948644526775678 		0.7682304445971145  0.34543403110578774 		Uiso   ? 		O 		-0.61064
O 1.0  		0.7988633200167332 		0.26499165767003635  0.3495509357595625 		Uiso   ? 		O 		-0.60770
O 1.0  		0.798244873303376 		0.7665129060751792  0.34865036286654927 		Uiso   ? 		O 		-0.60751
O 1.0  		0.406183202077743 		0.1349494552949259  0.248944078282942 		Uiso   ? 		O 		-0.60031
O 1.0  		0.40775539577854525 		0.6374521542840318  0.24817215866035924 		Uiso   ? 		O 		-0.61072
O 1.0  		0.909408073599238 		0.13249582883501818  0.25138849042112077 		Uiso   ? 		O 		-1.13805
O 1.0  		0.8988155417401698 		0.6246932966925115  0.24933003809423337 		Uiso   ? 		O 		-0.60031
O 1.0  		0.13664338715766328 		0.16831877514967125  0.26785610903621976 		Uiso   ? 		O 		-0.60043
O 1.0  		0.13927803172011324 		0.6708214741387771  0.26361055111201454 		Uiso   ? 		O 		-0.59946
O 1.0  		0.6415288342354739 		0.17003631367160663  0.26798476230665025 		Uiso   ? 		O 		-0.60043
O 1.0  		0.635514799277318 		0.6671410344489155  0.26875668192923297 		Uiso   ? 		O 		-0.59945
O 1.0  		0.35976454458055807 		0.16365688487584654  0.14524954231599044 		Uiso   ? 		O 		-1.13812
O 1.0  		0.3585567707953806 		0.6627245068210816  0.14396300961168584 		Uiso   ? 		O 		-0.60043
O 1.0  		0.8557823454885448 		0.16463833545980963  0.1476939544541692 		Uiso   ? 		O 		-0.59947
O 1.0  		0.8632473229465576 		0.6678771223868879  0.1483372208063215 		Uiso   ? 		O 		-0.60043
O 1.0  		0.29898135018449423 		0.26818137206791637  0.2710724407969813 		Uiso   ? 		O 		-0.59944
O 1.0  		0.2978393150901812 		0.7682304445971145  0.2684993753883721 		Uiso   ? 		O 		-0.60031
O 1.0  		0.8001799280189906 		0.2671999214839533  0.27081513425612036 		Uiso   ? 		O 		-0.60031
O 1.0  		0.7945251347146294 		0.7633231916772991  0.2731308931238687 		Uiso   ? 		O 		-0.61068
O 1.0  		0.31913298570741966 		0.05986848562174895  0.1744538347037051 		Uiso   ? 		O 		-0.58722
O 1.0  		0.31885618540216115 		0.5569732063990579  0.17561171413757923 		Uiso   ? 		O 		-0.58719
O 1.0  		0.8147082110250515 		0.05741485916184121  0.17818477954618847 		Uiso   ? 		O 		-0.58723
O 1.0  		0.8202760510318349 		0.5577092943370302  0.17844208608704937 		Uiso   ? 		O 		-0.58720
O 1.0  		0.3190103059485388 		0.059623122975758176  0.31970337701969553 		Uiso   ? 		O 		-1.13805
O 1.0  		0.3184816696486301 		0.5608990087349103  0.32137586953529157 		Uiso   ? 		O 		-0.58723
O 1.0  		0.8187038573310326 		0.055206595347924235  0.3217618293465829 		Uiso   ? 		O 		-0.58720
O 1.0  		0.8159188419260999 		0.55451957993915  0.32189048261701336 		Uiso   ? 		O 		-0.61069
O 1.0  		0.40991443273729744 		0.05741485916184121  0.17509710105585738 		Uiso   ? 		O 		-0.61069
O 1.0  		0.40945801160514156 		0.5550103052311317  0.1754830608671488 		Uiso   ? 		O 		-0.58722
O 1.0  		0.9085061874358229 		0.05716949651585043  0.1783134328166189 		Uiso   ? 		O 		-0.58719
O 1.0  		0.9103478123769713 		0.5589361075669841  0.17882804589834075 		Uiso   ? 		O 		-1.13813
O 1.0  		0.4103218178362607 		0.05397978211797037  0.31970337701969553 		Uiso   ? 		O 		-0.58723
O 1.0  		0.41057972468076515 		0.5606536460889195  0.3211185629944306 		Uiso   ? 		O 		-0.58720
O 1.0  		0.9102783239822121 		0.05348905682598882  0.31906011066754325 		Uiso   ? 		O 		-0.58723
O 1.0  		0.9105098379581726 		0.5550103052311317  0.31803088450409955 		Uiso   ? 		O 		-0.58720
O 1.0  		0.3631009697929255 		0.16905486308764353  0.2920429238771464 		Uiso   ? 		O 		-0.61071
O 1.0  		0.36230290225267076 		0.6710668367847679  0.2910136977137027 		Uiso   ? 		O 		-0.58704
O 1.0  		0.861920488763517 		0.1658651486897635  0.2926861902292987 		Uiso   ? 		O 		-0.58710
O 1.0  		0.8563314341500202 		0.6629698694670724  0.29037043136155044 		Uiso   ? 		O 		-0.58704
O 1.0  		0.41259541888497986 		0.14819903817842772  0.17432518143327463 		Uiso   ? 		O 		-0.58711
O 1.0  		0.41021131210212186 		0.6487388359996075  0.1754830608671488 		Uiso   ? 		O 		-0.58704
O 1.0  		0.9093974417914205 		0.14819903817842772  0.1774128599236057 		Uiso   ? 		O 		-0.58710
O 1.0  		0.9133639684558641 		0.6499656492295613  0.17818477954618847 		Uiso   ? 		O 		-0.58704
O 1.0  		0.41239172633549825 		0.14991657670036315  0.32279105551002657 		Uiso   ? 		O 		-0.58710
O 1.0  		0.4123144632487923 		0.6563450780253214  0.32201913588744385 		Uiso   ? 		O 		-0.58704
O 1.0  		0.9139912127920693 		0.1501619393463539  0.32382028167347027 		Uiso   ? 		O 		-0.58710
O 1.0  		0.9124241973530971 		0.6502110118755521  0.319832030290126 		Uiso   ? 		O 		-0.58704
O 1.0  		0.31888762618965794 		0.0593777603297674  0.14717934137244734 		Uiso   ? 		O 		-0.58711
O 1.0  		0.3189131264701776 		0.5562371184610855  0.1483372208063215 		Uiso   ? 		O 		-0.92972
O 1.0  		0.8191135635759553 		0.05815094709981353  0.1512962460262221 		Uiso   ? 		O 		-0.92971
O 1.0  		0.82155978968866 		0.5594268328589656  0.15065297967406982 		Uiso   ? 		O 		-0.61067
O 1.0  		0.32089864577692023 		0.060849936205712045  0.29281484349972914 		Uiso   ? 		O 		-0.92972
O 1.0  		0.3199778984777847 		0.5626165472568457  0.2930721500405901 		Uiso   ? 		O 		-0.92971
O 1.0  		0.8215078965395965 		0.05741485916184121  0.2943586827448947 		Uiso   ? 		O 		-0.92972
O 1.0  		0.818043743649395 		0.55451957993915  0.2941013762040338 		Uiso   ? 		O 		-0.92971
O 1.0  		0.4098727657690173 		0.055206595347924235  0.14807991426546058 		Uiso   ? 		O 		-0.61069
O 1.0  		0.4096705017774711 		0.5550103052311317  0.1487231806176129 		Uiso   ? 		O 		-0.55471
O 1.0  		0.9101732394690271 		0.056678771223868885  0.15103893948536118 		Uiso   ? 		O 		-0.92972
O 1.0  		0.9105515049264529 		0.5572185690450486  0.1523254721896658 		Uiso   ? 		O 		-0.92971
O 1.0  		0.3422902591604092 		0.07090980469133379  0.21935382608393597 		Uiso   ? 		O 		-0.92972
O 1.0  		0.343330066857408 		0.5702227892825597  0.2196111326247969 		Uiso   ? 		O 		-0.92971
O 1.0  		0.8379071514463213 		0.07066444204534301  0.22179823822211472 		Uiso   ? 		O 		-0.92972
O 1.0  		0.8413084227615293 		0.568750613406615  0.2215409316812538 		Uiso   ? 		O 		-0.92971
O 1.0  		0.4103482107048044 		0.05913239768377662  0.29230023041800735 		Uiso   ? 		O 		-0.61067
O 1.0  		0.41092369223482345 		0.5626165472568457  0.29423002947446425 		Uiso   ? 		O 		-0.58406
O 1.0  		0.9099607492966975 		0.056678771223868885  0.2917856173362855 		Uiso   ? 		O 		-0.61069
O 1.0  		0.9078372761313376 		0.5547649425851409  0.29127100425456365 		Uiso   ? 		O 		-0.61067
O 1.0  		0.41132927547385056 		0.14991657670036315  0.14730799464287783 		Uiso   ? 		O 		-0.58406
O 1.0  		0.41027705079298626 		0.6497202865835706  0.1476939544541692 		Uiso   ? 		O 		-0.61069
O 1.0  		0.9087030302064154 		0.14893512611640006  0.14962375351062612 		Uiso   ? 		O 		-0.61064
O 1.0  		0.9118195961815408 		0.6507017371675337  0.15065297967406982 		Uiso   ? 		O 		-0.58420
O 1.0  		0.41279263495757296 		0.151143389930317  0.29615982853092115 		Uiso   ? 		O 		-0.61070
O 1.0  		0.41062101834704456 		0.6516831877514968  0.2943586827448947 		Uiso   ? 		O 		-0.58277
O 1.0  		0.9137546508971555 		0.1513887525763078  0.29564521544919936 		Uiso   ? 		O 		-0.61064
O 1.0  		0.9098414459397107 		0.6497202865835706  0.2930721500405901 		Uiso   ? 		O 		-0.58420
O 1.0  		0.18237740461467045 		0.1896653253508686  0.15078163294450025 		Uiso   ? 		O 		-0.61071
O 1.0  		0.18024745497242203 		0.6924133869859653  0.1502670198627784 		Uiso   ? 		O 		-0.58277
O 1.0  		0.6838060678671921 		0.19211895181077634  0.15052432640363933 		Uiso   ? 		O 		-0.58406
O 1.0  		0.6793780721516396 		0.6906958484640299  0.1502670198627784 		Uiso   ? 		O 		-0.55471
O 1.0  		0.1813742159669987 		0.19530866620865642  0.2941013762040338 		Uiso   ? 		O 		-0.60771
O 1.0  		0.18236588021882888 		0.6970752772597901  0.2908850444432723 		Uiso   ? 		O 		-0.60031
O 1.0  		0.685368035387211 		0.19481794091667487  0.29461598928575566 		Uiso   ? 		O 		-0.60751
O 1.0  		0.6783244189128398 		0.6924133869859653  0.2943586827448947 		Uiso   ? 		O 		-0.60770
O 1.0  		0.3391181806752027 		0.0679654529394445  0.3639601020477741 		Uiso   ? 		O 		-0.60031
O 1.0  		0.3443203025513028 		0.5739032289724213  0.3637027955069132 		Uiso   ? 		O 		-0.60751
O 1.0  		0.843348561990329 		0.06624791441750909  0.3649893282112178 		Uiso   ? 		O 		-0.60748
O 1.0  		0.846066540489339 		0.5731671410344489  0.364474715129496 		Uiso   ? 		O 		-0.60043
O 1.0  		0.40472302400297033 		0.07508096967317696  0.2192251728135055 		Uiso   ? 		O 		-0.60778
O 1.0  		0.4004241845231872 		0.5692413386985965  0.2206403587882406 		Uiso   ? 		O 		-0.59943
O 1.0  		0.8952466286298622 		0.07017371675336147  0.2216695849516843 		Uiso   ? 		O 		-0.60747
O 1.0  		0.9057674812910891 		0.5714496025125135  0.22205554476297565 		Uiso   ? 		O 		-0.60043
O 1.0  		0.3955090891331289 		0.06600255177151831  0.3626735693434695 		Uiso   ? 		O 		-0.60777
O 1.0  		0.3982752110773076 		0.5704681519285505  0.36318818242519135 		Uiso   ? 		O 		-0.59947
O 1.0  		0.8976803074158242 		0.06526646383354599  0.36293087588433043 		Uiso   ? 		O 		-0.58406
O 1.0  		0.8999645079473273 		0.5704681519285505  0.3615156899095954 		Uiso   ? 		O 		-0.58420
O 1.0  		0.40677900562645153 		0.13274119148100896  0.22076901205867103 		Uiso   ? 		O 		-0.58276
O 1.0  		0.40403333604383945 		0.6278830110903917  0.21948247935436643 		Uiso   ? 		O 		-0.58420
O 1.0  		0.9055415835290265 		0.1302875650211012  0.22295611765598888 		Uiso   ? 		O 		-0.58278
O 1.0  		0.9045791692616107 		0.6298459122583179  0.22102631859953195 		Uiso   ? 		O 		-0.58420
O 1.0  		0.18170021497336047 		0.28265776818137206  0.1483372208063215 		Uiso   ? 		O 		-0.58278
O 1.0  		0.18052763167957467 		0.7885955442143489  0.14962375351062612 		Uiso   ? 		O 		-0.58420
O 1.0  		0.6819196758827692 		0.2860928452252429  0.1503956731332089 		Uiso   ? 		O 		-0.58272
O 1.0  		0.6807929148881928 		0.7831975660025519  0.1489804871584738 		Uiso   ? 		O 		-0.55471
O 1.0  		0.3944587309622679 		0.12169987241142409  0.364474715129496 		Uiso   ? 		O 		-0.58406
O 1.0  		0.39698829101153277 		0.6273922857984101  0.3630595291547609 		Uiso   ? 		O 		-0.61067
O 1.0  		0.901565366653711 		0.11851015801354402  0.3647320216703569 		Uiso   ? 		O 		-0.58406
O 1.0  		0.899967803015266 		0.6244479340465208  0.3612583833687344 		Uiso   ? 		O 		-1.13805
O 1.0  		0.1930394248684979 		0.20291490823437042  0.22205554476297565 		Uiso   ? 		O 		-1.13812
O 1.0  		0.19890773127608963 		0.7203847286289136  0.21986843916565782 		Uiso   ? 		O 		-1.13805
O 1.0  		0.6957212785783718 		0.21297477671999215  0.2215409316812538 		Uiso   ? 		O 		-1.13812
O 1.0  		0.6899701983836735 		0.7140052998331535  0.22192689149254521 		Uiso   ? 		O 		-0.61069
O 1.0  		0.19692583133036473 		0.21493767788791837  0.3637027955069132 		Uiso   ? 		O 		-1.13806
O 1.0  		0.19324039064498583 		0.7103248601432919  0.36010050393486026 		Uiso   ? 		O 		-1.13812
O 1.0  		0.6945930890258598 		0.21199332613602906  0.3637027955069132 		Uiso   ? 		O 		-1.13804
O 1.0  		0.6926186884879244 		0.715477475709098  0.36511798148164826 		Uiso   ? 		O 		-1.13799
O 1.0  		0.1880397296518548 		0.27578761409363045  0.22076901205867103 		Uiso   ? 		O 		-1.13804
O 1.0  		0.19659122969409937 		0.7777995877907548  0.21896786627264458 		Uiso   ? 		O 		-0.55463
O 1.0  		0.6812423725824703 		0.266463833545981  0.22244150457426703 		Uiso   ? 		O 		-1.13799
O 1.0  		0.678295331596336 		0.7697026204730593  0.22295611765598888 		Uiso   ? 		O 		-1.13805
O 1.0  		0.19632684637270648 		0.27578761409363045  0.36383144877734364 		Uiso   ? 		O 		-1.13799
O 1.0  		0.1844353017570767 		0.7692118951810777  0.3595858908531384 		Uiso   ? 		O 		-1.13804
O 1.0  		0.6957532876608137 		0.27848660319952895  0.3637027955069132 		Uiso   ? 		O 		-1.13799
O 1.0  		0.6967273566669481 		0.7768181372067917  0.36511798148164826 		Uiso   ? 		O 		-0.55540
O 1.0  		0.1829029408395848 		0.2863382078712337  0.2951306023674775 		Uiso   ? 		O 		-0.55463
O 1.0  		0.1814586051594936 		0.7866326430464227  0.29127100425456365 		Uiso   ? 		O 		-0.55538
O 1.0  		0.6817794008781928 		0.28241240553538133  0.295001949097047 		Uiso   ? 		O 		-0.55463
O 1.0  		0.680981333337938 		0.7844243792325057  0.2960311752604907 		Uiso   ? 		O 		-1.13804
O 1.0  		0.25647683924169984 		0.27284326234174117  0.22308477092641935 		Uiso   ? 		O 		-0.55535
O 1.0  		0.2543556872222993 		0.7773088624987733  0.22076901205867103 		Uiso   ? 		O 		-0.55463
O 1.0  		0.7537783788065117 		0.2755422514476396  0.22372803727857166 		Uiso   ? 		O 		-0.55537
O 1.0  		0.7513526050553736 		0.7738737854549024  0.22411399708986302 		Uiso   ? 		O 		-0.55463
O 1.0  		0.2500211212812131 		0.27480616350966736  0.3662758609155224 		Uiso   ? 		O 		-0.55534
O 1.0  		0.2477180272889559 		0.7733830601629209  0.36112973009830396 		Uiso   ? 		O 		-1.13799
O 1.0  		0.7487026863931874 		0.2743154382176858  0.3639601020477741 		Uiso   ? 		O 		-0.55463
O 1.0  		0.7506253241249363 		0.7741191481008931  0.36691912726767467 		Uiso   ? 		O 		-0.55549
O 1.0  		0.19457964181189197 		0.21322013936598294  0.24971599790552476 		Uiso   ? 		O 		-0.55471
O 1.0  		0.1990609592344433 		0.7147413877711257  0.24740023903777647 		Uiso   ? 		O 		-0.61064
O 1.0  		0.6982975535148699 		0.21812739228579844  0.2495873446350943 		Uiso   ? 		O 		-0.55471
O 1.0  		0.6921608387978332 		0.7149867504171166  0.25035926425767707 		Uiso   ? 		O 		-0.55471
O 1.0  		0.36086866241048576 		0.1658651486897635  0.17921400570963214 		Uiso   ? 		O 		-0.61071
O 1.0  		0.35968496034789266 		0.6637059574050447  0.17818477954618847 		Uiso   ? 		O 		-0.98192
O 1.0  		0.8582424171430505 		0.1648836981058004  0.1816584178478109 		Uiso   ? 		O 		-0.98194
O 1.0  		0.8630829762193966 		0.6654234959269801  0.18127245803651953 		Uiso   ? 		O 		-0.98193
O 1.0  		0.18593889965114382 		0.2745608008636765  0.24933003809423337 		Uiso   ? 		O 		-0.98194
O 1.0  		0.19002810607446827 		0.776572774560801  0.24649966614476324 		Uiso   ? 		O 		-0.98193
O 1.0  		0.6834658823420622 		0.26793600942192564  0.25048791752810756 		Uiso   ? 		O 		-0.98194
O 1.0  		0.6795309268079925 		0.7738737854549024  0.2516457969619817 		Uiso   ? 		O 		-1.13804
O 1.0  		0.25857766924241077 		0.274070075571695  0.25113118388025985 		Uiso   ? 		O 		-0.98199
O 1.0  		0.25366127563729424 		0.7780449504367455  0.24907273155337245 		Uiso   ? 		O 		-0.98193
O 1.0  		0.7554125614942835 		0.2745608008636765  0.25203175677327305 		Uiso   ? 		O 		-0.98200
O 1.0  		0.7537052710507348 		0.7709294337030131  0.2519031035028426 		Uiso   ? 		O 		-0.98194
O 1.0  		0.359225682099866 		0.16512906075179118  0.3271652667046623 		Uiso   ? 		O 		-0.56721
O 1.0  		0.36390653674096984 		0.6759740897045834  0.3253641209186358 		Uiso   ? 		O 		-0.91724
O 1.0  		0.8640213187642279 		0.16709196191971737  0.32690796016380136 		Uiso   ? 		O 		-0.60244
O 1.0  		0.8611136236004142 		0.6661595838649524  0.32472085456648353 		Uiso   ? 		O 		-0.91724
O 1.0  		0.36361564689204423 		0.05618804593188734  0.19092145331880409 		Uiso   ? 		O 		-0.91715
O 1.0  		0.3620879772753929 		0.5520659534792424  0.19182202621181732 		Uiso   ? 		O 		-0.91724
O 1.0  		0.8586344144832884 		0.051771518304053396  0.1941377850795656 		Uiso   ? 		O 		-0.98153
O 1.0  		0.863139803628424 		0.5520659534792424  0.194523744890857 		Uiso   ? 		O 		-1.13516
O 1.0  		0.36043477078398983 		0.051526155658062615  0.3356563825530727 		Uiso   ? 		O 		-0.98153
O 1.0  		0.3638712325905892 		0.5564824811070762  0.3360423423643641 		Uiso   ? 		O 		-0.98153
O 1.0  		0.8615676099276217 		0.049563254490136426  0.3364283021756555 		Uiso   ? 		O 		-0.56686
O 1.0  		0.8619546730078955 		0.5518205908332516  0.33591368909393365 		Uiso   ? 		O 		-0.56684
O 1.0  		0.4203450203491195 		0.10845028952792228  0.191178759859665 		Uiso   ? 		O 		-0.56684
O 1.0  		0.4173387171490094 		0.6060457355972128  0.19156471967095642 		Uiso   ? 		O 		-0.59988
O 1.0  		0.9152827751497629 		0.10599666306801453  0.1938804785387047 		Uiso   ? 		O 		-0.59988
O 1.0  		0.9188483931921316 		0.6065364608891942  0.19478105143171792 		Uiso   ? 		O 		-0.59987
O 1.0  		0.41579939279363926 		0.10403376190008834  0.3370715685278078 		Uiso   ? 		O 		-0.60243
O 1.0  		0.4183048811203198 		0.6109529885170283  0.33732887506866865 		Uiso   ? 		O 		-0.59988
O 1.0  		0.9187307613522041 		0.10354303660810679  0.33578503582350316 		Uiso   ? 		O 		-0.56685
O 1.0  		0.916657752777972 		0.6055550103052312  0.3341125433079072 		Uiso   ? 		O 		-0.56684
O 1.0  		0.3645017719947333 		0.11065855334183924  0.19207933275267824 		Uiso   ? 		O 		-0.56684
O 1.0  		0.3621810827567803 		0.6058003729512219  0.191178759859665 		Uiso   ? 		O 		-1.13516
O 1.0  		0.8606575267613373 		0.10894101481990383  0.19581027759516162 		Uiso   ? 		O 		-0.56730
O 1.0  		0.8629722754923133 		0.6082539994111297  0.19529566451343977 		Uiso   ? 		O 		-0.56739
O 1.0  		0.36217965419884485 		0.10771420158994996  0.33668560871651637 		Uiso   ? 		O 		-0.59953
O 1.0  		0.3618065670032492 		0.6097261752870743  0.33655695544608594 		Uiso   ? 		O 		-0.56746
O 1.0  		0.8619060749267708 		0.10378839925409757  0.33797214142082094 		Uiso   ? 		O 		-0.59953
O 1.0  		0.8631430986963629 		0.6060457355972128  0.33578503582350316 		Uiso   ? 		O 		-0.60206
O 1.0  		0.2762912110054334 		0.28314849347335364  0.14988106005148705 		Uiso   ? 		O 		-0.60206
O 1.0  		0.27497835270707094 		0.7854058298164688  0.14949510024019566 		Uiso   ? 		O 		-0.60206
O 1.0  		0.7747121424999095 		0.2851113946412798  0.15142489929665257 		Uiso   ? 		O 		-0.60206
O 1.0  		0.7758176888877726 		0.7854058298164688  0.15219681891923534 		Uiso   ? 		O 		-0.60243
O 1.0  		0.36098243088752974 		0.051771518304053396  0.13199825546165297 		Uiso   ? 		O 		-0.56720
O 1.0  		0.3593978202028618 		0.5483855137893807  0.13199825546165297 		Uiso   ? 		O 		-0.56740
O 1.0  		0.8595653879632073 		0.049808617136127206  0.13508593395198404 		Uiso   ? 		O 		-0.56734
O 1.0  		0.8611616533865938 		0.5510845028952792  0.13495728068155355 		Uiso   ? 		O 		-0.59953
O 1.0  		0.3634513001648833 		0.05373441947197959  0.2750606921803256 		Uiso   ? 		O 		-0.56743
O 1.0  		0.3617616049670303 		0.553538129355187  0.2766045314254911 		Uiso   ? 		O 		-0.59953
O 1.0  		0.8640212051052389 		0.054470507409951914  0.2769904912367825 		Uiso   ? 		O 		-1.13516
O 1.0  		0.8606709343510703 		0.5501030523113162  0.27750510431850434 		Uiso   ? 		O 		-0.58277
O 1.0  		0.4184478828978902 		0.10550593777603298  0.13199825546165297 		Uiso   ? 		O 		-0.58279
O 1.0  		0.4145675472858776 		0.6043281970752773  0.13277017508423575 		Uiso   ? 		O 		-0.58279
O 1.0  		0.9145554942193257 		0.1062420257140053  0.13444266759983173 		Uiso   ? 		O 		-0.58279
O 1.0  		0.9158735307795183 		0.6065364608891942  0.13521458722241447 		Uiso   ? 		O 		-0.58278
O 1.0  		0.41974921680041105 		0.11065855334183924  0.27750510431850434 		Uiso   ? 		O 		-0.58279
O 1.0  		0.4183048811203198 		0.6109529885170283  0.27763375758893477 		Uiso   ? 		O 		-0.58355
O 1.0  		0.9202686571496387 		0.10746883894395919  0.2772477977776434 		Uiso   ? 		O 		-0.58356
O 1.0  		0.9160202822609835 		0.6055550103052312  0.2760899183437692 		Uiso   ? 		O 		-0.56721
O 1.0  		0.29409341095086905 		0.9851310236529591  0.005789397169370744 		Uiso   ? 		O 		-0.58355
O 1.0  		0.29273370742239635 		0.48262832466385325  0.0045028644650661346 		Uiso   ? 		O 		-0.58356
O 1.0  		0.7902820350629054 		0.9839042104230052  0.00926303547099319 		Uiso   ? 		O 		-0.58354
O 1.0  		0.7994593508834198 		0.4880263028756503  0.007075929873675354 		Uiso   ? 		O 		-0.56721
O 1.0  		0.35171485001761055 		0.09740897045833743  0.993846514075311 		Uiso   ? 		O 		-0.72725
O 1.0  		0.35143804971235204 		0.5945136912356463  0.9915307552075627 		Uiso   ? 		O 		-0.58355
O 1.0  		0.853590244191416 		0.09225635489253117  0.9946184336978938 		Uiso   ? 		O 		-0.92578
O 1.0  		0.8551142944470498 		0.5972126803415448  0.9953903533204767 		Uiso   ? 		O 		-0.55543
O 1.0  		0.10882476982819067 		0.17175385219354206  0.0369234886135423 		Uiso   ? 		O 		-0.92578
O 1.0  		0.11091175428710068 		0.6740111885366572  0.041683659619469356 		Uiso   ? 		O 		-0.92578
O 1.0  		0.6108756294979645 		0.1771518304053391  0.03962520729258198 		Uiso   ? 		O 		-0.92578
O 1.0  		0.6088243715003574 		0.6715575620767495  0.03653752880225092 		Uiso   ? 		O 		-0.92578
O 1.0  		0.16865632774867906 		0.23702031602708803  0.9955190065909071 		Uiso   ? 		O 		-0.92578
O 1.0  		0.15656756706045613 		0.727500245362646  0.9961622729430594 		Uiso   ? 		O 		-0.58306
O 1.0  		0.6667309705431375 		0.23064088723132792  0.9942324738866024 		Uiso   ? 		O 		-0.58306
O 1.0  		0.6670828431320196 		0.7260280694867014  0.9946184336978938 		Uiso   ? 		O 		-0.56223
O 1.0  		0.2155870815560117 		0.2905093728530769  0.9964195794839203 		Uiso   ? 		O 		-0.72731
O 1.0  		0.20901426772550868 		0.7792717636666995  0.9947470869683244 		Uiso   ? 		O 		-0.60243
O 1.0  		0.7197341289345777 		0.2843753067033075  0.9948757402387547 		Uiso   ? 		O 		-0.58477
O 1.0  		0.7165634790073065 		0.7795171263126902  0.994103820616172 		Uiso   ? 		O 		-0.55543
O 1.0  		0.22021922445700187 		0.24070075571694965  0.9937178608048807 		Uiso   ? 		O 		-0.58306
O 1.0  		0.20834943041799706 		0.7265187947786829  0.9946184336978938 		Uiso   ? 		O 		-0.60244
O 1.0  		0.7220770233851117 		0.23211306310727256  0.9944897804274634 		Uiso   ? 		O 		-0.58477
O 1.0  		0.7230839617366782 		0.7309353224065169  0.9947470869683244 		Uiso   ? 		O 		-0.59953
O 1.0  		0.16371626804801248 		0.22671508489547554  0.05442033339208499 		Uiso   ? 		O 		-0.59953
O 1.0  		0.1646662653315626 		0.7262734321326921  0.055063599744237295 		Uiso   ? 		O 		-0.59987
O 1.0  		0.6672786306466774 		0.23088624987731868  0.0533911072286413 		Uiso   ? 		O 		-0.60206
O 1.0  		0.6637904060338915 		0.7292177838845815  0.05532090628509822 		Uiso   ? 		O 		-0.59988
O 1.0  		0.17122050999439042 		0.18647561095298854  0.033449850311919854 		Uiso   ? 		O 		-0.72750
O 1.0  		0.1698002460368835 		0.6855432328982236  0.0369234886135423 		Uiso   ? 		O 		-0.56232
O 1.0  		0.6738912449354572 		0.18843851212091473  0.0369234886135423 		Uiso   ? 		O 		-0.60207
O 1.0  		0.6740898895659857 		0.689469035234076  0.036408875531820456 		Uiso   ? 		O 		-0.56232
O 1.0  		0.22057064240992805 		0.28560211993326134  0.056092825907680985 		Uiso   ? 		O 		-0.58306
O 1.0  		0.21856105138060114 		0.7822161154185888  0.05416302685122407 		Uiso   ? 		O 		-0.58478
O 1.0  		0.7234538675233242 		0.28756502110118753  0.055063599744237295 		Uiso   ? 		O 		-0.56720
O 1.0  		0.7218868520843521 		0.7876140936303858  0.056092825907680985 		Uiso   ? 		O 		-0.58478
O 1.0  		0.2215223925444925 		0.22843262341741097  0.051847267983475775 		Uiso   ? 		O 		-0.55543
O 1.0  		0.21918642920680306 		0.7265187947786829  0.051332654901753934 		Uiso   ? 		O 		-0.58478
O 1.0  		0.723229284660208 		0.23186770046128177  0.0533911072286413 		Uiso   ? 		O 		-0.56721
O 1.0  		0.7203938046641473 		0.7272548827166553  0.056092825907680985 		Uiso   ? 		O 		-0.58477
O 1.0  		0.2683624756753861 		0.34718814407694576  0.010420914904867339 		Uiso   ? 		O 		-0.56235
O 1.0  		0.26689822360363974 		0.8376680734125038  0.004631517735496595 		Uiso   ? 		O 		-0.58306
O 1.0  		0.7788777517469496 		0.3457159682010011  0.00668997006238397 		Uiso   ? 		O 		-0.56222
O 1.0  		0.7747103896488952 		0.8418392383943469  0.006175356980662127 		Uiso   ? 		O 		-0.56227
O 1.0  		0.10444910521376949 		0.23015016193934637  0.010549568175297801 		Uiso   ? 		O 		-0.58306
O 1.0  		0.10327420077402433 		0.729708509176563  0.013765899936059324 		Uiso   ? 		O 		-1.13516
O 1.0  		0.6171966886677727 		0.23186770046128177  0.007333236414536276 		Uiso   ? 		O 		-1.13516
O 1.0  		0.6052722747067107 		0.7248012562567476  0.00926303547099319 		Uiso   ? 		O 		-1.13516
O 1.0  		0.22176677814027485 		0.18132299538718227  0.001029226163443688 		Uiso   ? 		O 		-0.55402
O 1.0  		0.21414910869381998 		0.6735204632446757  0.005660743898940283 		Uiso   ? 		O 		-1.12612
O 1.0  		0.7246717538302959 		0.17567965452939446  0.006818623332814432 		Uiso   ? 		O 		-1.12612
O 1.0  		0.7264805094260119 		0.6769555402885465  0.009648995282284573 		Uiso   ? 		O 		-1.12612
O 1.0  		0.10764941075248943 		0.22082638139169694  0.043742111946356736 		Uiso   ? 		O 		-1.12613
O 1.0  		0.1075040878289597 		0.7198940033369321  0.04567191100281365 		Uiso   ? 		O 		-1.12614
O 1.0  		0.6093651004910529 		0.22597899695750323  0.03898194094042968 		Uiso   ? 		O 		-0.55402
O 1.0  		0.6095942933210542 		0.721120816566886  0.042712885782913046 		Uiso   ? 		O 		-0.55402
O 1.0  		0.2225398813699213 		0.1722445774855236  0.03383581012321124 		Uiso   ? 		O 		-0.55402
O 1.0  		0.22129923823931172 		0.6708214741387771  0.03615156899095954 		Uiso   ? 		O 		-0.55402
O 1.0  		0.7266587016949739 		0.17837864363529296  0.039882513833442906 		Uiso   ? 		O 		-0.60243
O 1.0  		0.7266929995983415 		0.6769555402885465  0.042326925971621666 		Uiso   ? 		O 		-0.55402
O 1.0  		0.34724882337868374 		0.9856217489449408  0.04065443345602567 		Uiso   ? 		O 		-0.72747
O 1.0  		0.34382995681778006 		0.48410050053979786  0.03911059421086013 		Uiso   ? 		O 		-0.55543
O 1.0  		0.8462590819449798 		0.9900382765727747  0.04425672502807857 		Uiso   ? 		O 		-0.72716
O 1.0  		0.8518786847579493 		0.4870448522916872  0.04348480540549581 		Uiso   ? 		O 		-0.55543
O 1.0  		0.27586293559283565 		0.22916871135538328  0.03486503628665493 		Uiso   ? 		O 		-0.72713
O 1.0  		0.27223443597547325 		0.7238198056727845  0.034993689557085386 		Uiso   ? 		O 		-0.55543
O 1.0  		0.7760648012565488 		0.22916871135538328  0.03718079515440322 		Uiso   ? 		O 		-0.98153
O 1.0  		0.7761648378507806 		0.7287270585926  0.03898194094042968 		Uiso   ? 		O 		-1.12611
O 1.0  		0.2968442421114233 		0.09986259691824517  0.041683659619469356 		Uiso   ? 		O 		-0.98153
O 1.0  		0.29840763818937766 		0.6006477573854156  0.03833867458827737 		Uiso   ? 		O 		-0.98153
O 1.0  		0.8001547687154379 		0.1082049268819315  0.03795271477698599 		Uiso   ? 		O 		-0.91718
O 1.0  		0.799492333887841 		0.6011384826773973  0.04001116710387336 		Uiso   ? 		O 		-0.91726
O 1.0  		0.4618537930431101 		0.1523702031602709  0.0045028644650661346 		Uiso   ? 		O 		-0.97332
O 1.0  		0.46086498590715075 		0.6467759348316813  0.007333236414536276 		Uiso   ? 		O 		-0.97351
O 1.0  		0.9625593306961235 		0.14402787319658455  0.00656131679195351 		Uiso   ? 		O 		-1.12392
O 1.0  		0.9626528908134669 		0.6482481107076259  0.010034955093575956 		Uiso   ? 		O 		-0.97464
O 1.0  		0.35057645096820333 		0.9893021886348023  0.007461889684966737 		Uiso   ? 		O 		-0.97358
O 1.0  		0.3487829694722236 		0.48508195112376096  0.0064326635215230495 		Uiso   ? 		O 		-0.97598
O 1.0  		0.8479150152093764 		0.9814505839630976  0.01312263358390702 		Uiso   ? 		O 		-0.95788
O 1.0  		0.851699063931052 		0.4875355775836687  0.010806874716158724 		Uiso   ? 		O 		-0.91942
O 1.0  		0.28897330811238275 		0.09814505839630976  0.00784784949625812 		Uiso   ? 		O 		-0.56854
O 1.0  		0.2977854417721255 		0.5977034056335264  0.004374211194635673 		Uiso   ? 		O 		-0.59545
O 1.0  		0.7997186696019716 		0.10010795956423595  0.004760171005927056 		Uiso   ? 		O 		-0.59668
O 1.0  		0.8008811570578511 		0.5996663068014526  0.00656131679195351 		Uiso   ? 		O 		-0.56447
O 1.0  		0.1712201366923898 		0.2752968888016489  0.03859598112913829 		Uiso   ? 		O 		-0.56220
O 1.0  		0.17091926466454693 		0.7736284228089116  0.039753860563012444 		Uiso   ? 		O 		-0.56216
O 1.0  		0.6739325386017364 		0.27946805378349204  0.037309448424833684 		Uiso   ? 		O 		-0.56871
O 1.0  		0.6731409475383703 		0.7768181372067917  0.03718079515440322 		Uiso   ? 		O 		-0.56910
O 1.0  		0.2772888970981961 		0.3297673962116008  0.9874138505537879 		Uiso   ? 		O 		-0.56804
O 1.0  		0.268089343740067 		0.8094513691235646  0.9835542524408741 		Uiso   ? 		O 		-1.11899
O 1.0  		0.7807808787140776 		0.32019825301796057  0.9844548253338874 		Uiso   ? 		O 		-0.56452
O 1.0  		0.7748237848239384 		0.8165668858572971  0.9834255991704437 		Uiso   ? 		O 		-0.59596
O 1.0  		0.1294600149647387 		0.2593483168122485  0.9876711570946489 		Uiso   ? 		O 		-0.59474
O 1.0  		0.12456537193624706 		0.7557169496515851  0.9897296094215363 		Uiso   ? 		O 		-0.60596
O 1.0  		0.6367726643516227 		0.2608204926881932  0.9847121318747484 		Uiso   ? 		O 		-0.60576
O 1.0  		0.6272337857313541 		0.7513004220237511  0.9854840514973311 		Uiso   ? 		O 		-0.54353
O 1.0  		0.140640981307603 		0.2613112179801747  0.12222060690893792 		Uiso   ? 		O 		-0.55376
O 1.0  		0.13828094624732928 		0.7606242025714006  0.12350713961324254 		Uiso   ? 		O 		-0.56331
O 1.0  		0.6402229717000233 		0.26474629502404556  0.12350713961324254 		Uiso   ? 		O 		-0.56947
O 1.0  		0.6407063216706341 		0.7620963784473452  0.12157734055678562 		Uiso   ? 		O 		-0.56619
O 1.0  		0.1946754417412395 		0.18451270978506235  0.9795660010575299 		Uiso   ? 		O 		-0.55223
O 1.0  		0.18063907901065926 		0.6681224850328786  0.9862559711199139 		Uiso   ? 		O 		-1.09612
O 1.0  		0.6938342859739703 		0.17052703896358817  0.9847121318747484 		Uiso   ? 		O 		-0.56374
O 1.0  		0.6992377792535927 		0.6683678476788695  0.985741358038192 		Uiso   ? 		O 		-0.60541
O 1.0  		0.2019107394082611 		0.16880950044165277  0.12543693866969946 		Uiso   ? 		O 		-0.60655
O 1.0  		0.19989467190204563 		0.6700853862008048  0.125308285399269 		Uiso   ? 		O 		-0.58017
O 1.0  		0.7039352062094912 		0.16905486308764353  0.12633751156271267 		Uiso   ? 		O 		-0.58231
O 1.0  		0.700782151527916 		0.6676317597408972  0.12698077791486498 		Uiso   ? 		O 		-0.58341
O 1.0  		0.12480050527322542 		0.25640396506035923  0.06252548942920404 		Uiso   ? 		O 		-0.58303
O 1.0  		0.1256606921433268 		0.7562076749435667  0.06458394175609142 		Uiso   ? 		O 		-0.58188
O 1.0  		0.6287790505937014 		0.25885759152026694  0.06072434364317758 		Uiso   ? 		O 		-0.59447
O 1.0  		0.6255690548441095 		0.7581705761114929  0.0609816501840385 		Uiso   ? 		O 		-0.58184
O 1.0  		0.19210100098971117 		0.1619393463539111  0.05686474553026375 		Uiso   ? 		O 		-0.57922
O 1.0  		0.19284730572377962 		0.6632152321130631  0.060081077291025284 		Uiso   ? 		O 		-0.58115
O 1.0  		0.6935954029330971 		0.16537442339778194  0.061367609995329885 		Uiso   ? 		O 		-1.09728
O 1.0  		0.6882341125916664 		0.6595347924232016  0.06123895672489942 		Uiso   ? 		O 		-0.58082
O 1.0  		0.3796324486853804 		0.006624791441750908  0.062396836158773575 		Uiso   ? 		O 		-0.58119
O 1.0  		0.37875984483141334 		0.5059377760329767  0.05982377075016436 		Uiso   ? 		O 		-0.57614
O 1.0  		0.8796394194224596 		0.01005986848562175  0.06484124829695233 		Uiso   ? 		O 		-0.57942
O 1.0  		0.8827800571201694 		0.5105996663068015  0.06574182118996556 		Uiso   ? 		O 		-0.91981
O 1.0  		0.28374805611064413 		0.06772009029345373  0.06252548942920404 		Uiso   ? 		O 		-0.91758
O 1.0  		0.28567069384239324 		0.5675238001766612  0.05995242402059482 		Uiso   ? 		O 		-0.92220
O 1.0  		0.788219641612603 		0.07753459613308471  0.06149626326576035 		Uiso   ? 		O 		-0.90762
O 1.0  		0.7898376576126145 		0.5712042398665227  0.06252548942920404 		Uiso   ? 		O 		-0.92012
O 1.0  		0.2989894825372962 		0.9868485621748946  0.037824061506555526 		Uiso   ? 		O 		-0.55228
O 1.0  		0.29392763566577274 		0.48459122583177944  0.036794835343111836 		Uiso   ? 		O 		-0.59170
O 1.0  		0.7944924926871753 		0.9880753754048485  0.04142635307860844 		Uiso   ? 		O 		-0.91298
O 1.0  		0.796532631915975 		0.48557267641574253  0.038853287669999216 		Uiso   ? 		O 		-0.58586
O 1.0  		0.10757622166275718 		0.17690646775934832  0.004888824276357517 		Uiso   ? 		O 		-0.59088
O 1.0  		0.10077564356018825 		0.6686132103248602  0.011707447609171948 		Uiso   ? 		O 		-1.12709
O 1.0  		0.609951132494934 		0.17445284129944058  0.006818623332814432 		Uiso   ? 		O 		-0.58845
O 1.0  		0.612649194602289 		0.6715575620767495  0.005532090628509821 		Uiso   ? 		O 		-0.59292
O 1.0  		0.43615127981408486 		0.15408774168220632  0.9813671468435564 		Uiso   ? 		O 		-0.60540
O 1.0  		0.4383498252630684 		0.6484934733536166  0.9830396393591524 		Uiso   ? 		O 		-0.59609
O 1.0  		0.9392840197761719 		0.1455000490725292  0.9829109860887218 		Uiso   ? 		O 		-0.59182
O 1.0  		0.9385276192041971 		0.6497202865835706  0.9868992374720662 		Uiso   ? 		O 		-0.58769
O 1.0  		0.38003567845341457 		0.014231033467464915  0.9848407851451788 		Uiso   ? 		O 		-0.55222
O 1.0  		0.3806569822826428 		0.5088821277848661  0.9841975187930265 		Uiso   ? 		O 		-0.60584
O 1.0  		0.8744058567588627 		0.0017175385219354207  0.9892149963398145 		Uiso   ? 		O 		-0.59609
O 1.0  		0.8754567832246689 		0.5091274904308569  0.9868992374720662 		Uiso   ? 		O 		-0.58791
O 1.0  		0.3878890172067593 		0.012513494945529493  0.12157734055678562 		Uiso   ? 		O 		-0.56520
O 1.0  		0.3883570930776338 		0.5128079301207185  0.12170599382721609 		Uiso   ? 		O 		-0.54567
O 1.0  		0.8883931834562505 		0.01226813229953872  0.12517963212883854 		Uiso   ? 		O 		-0.56995
O 1.0  		0.8921800892937968 		0.5145254686426539  0.125308285399269 		Uiso   ? 		O 		-0.55884
O 1.0  		0.2909991148383918 		0.07287270585925999  0.9847121318747484 		Uiso   ? 		O 		-0.55496
O 1.0  		0.29143200021787474 		0.5662969869467073  0.982396373007 		Uiso   ? 		O 		-0.54469
O 1.0  		0.791255600424162 		0.06575718912552754  0.9839402122521655 		Uiso   ? 		O 		-0.54282
O 1.0  		0.7978224737476879 		0.5714496025125135  0.9839402122521655 		Uiso   ? 		O 		-0.58949
O 1.0  		0.29835757922528405 		0.08121503582294633  0.121963300368077 		Uiso   ? 		O 		-0.58833
O 1.0  		0.2953424784023259 		0.5770929433703014  0.12389309942453391 		Uiso   ? 		O 		-0.55222
O 1.0  		0.7946512878505053 		0.07679850819511239  0.12878192370089142 		Uiso   ? 		O 		-1.10355
O 1.0  		0.7973998145489882 		0.5778290313082737  0.12698077791486498 		Uiso   ? 		O 		-1.11639
O 1.0  		0.26081877424769845 		0.27897732849151047  0.036280222261389994 		Uiso   ? 		O 		-1.11954
O 1.0  		0.2581388433559508 		0.7751005986848563  0.03486503628665493 		Uiso   ? 		O 		-1.12527
O 1.0  		0.7646089011184292 		0.28020414172146435  0.03653752880225092 		Uiso   ? 		O 		-0.59307
O 1.0  		0.7622159967127232 		0.7790264010207086  0.036408875531820456 		Uiso   ? 		O 		-1.12708
O 1.0  		0.3068162334291528 		0.3280498576896653  0.02392950830006574 		Uiso   ? 		O 		-1.12760
O 1.0  		0.30719217774061924 		0.8222102267150849  0.020198563457582374 		Uiso   ? 		O 		-0.79092
O 1.0  		0.8175944642641737 		0.3305034841495731  0.022900282136622055 		Uiso   ? 		O 		-0.56753
O 1.0  		0.8128312986174109 		0.8288350181568359  0.022771628866191593 		Uiso   ? 		O 		-0.74304
O 1.0  		0.11954567899399336 		0.27946805378349204  0.031005438173741094 		Uiso   ? 		O 		-0.75101
O 1.0  		0.11884389834407583 		0.776572774560801  0.033063890500628475 		Uiso   ? 		O 		-0.83617
O 1.0  		0.625403766520003 		0.28143095495141823  0.02367220175920482 		Uiso   ? 		O 		-0.82744
O 1.0  		0.621448894594278 		0.777554225144764  0.02740314660168819 		Uiso   ? 		O 		-0.71793
O 1.0  		0.16988765397041738 		0.1396113455687506  0.015052432640363935 		Uiso   ? 		O 		-0.55212
O 1.0  		0.16446942256097016 		0.6345078025321426  0.023028935407052514 		Uiso   ? 		O 		-1.12153
O 1.0  		0.6725977347338048 		0.13740308175483368  0.024701427922648508 		Uiso   ? 		O 		-0.55225
O 1.0  		0.673302372499593 		0.6364707037000688  0.02675988024953588 		Uiso   ? 		O 		-0.55239
O 1.0  		0.44827714651262446 		0.19236431445676713  0.021871055973178368 		Uiso   ? 		O 		-0.95808
O 1.0  		0.44566943078862964 		0.6848071449602513  0.021485096161886985 		Uiso   ? 		O 		-0.88446
O 1.0  		0.9510835141663488 		0.18524879772303465  0.01595300553337716 		Uiso   ? 		O 		-0.56806
O 1.0  		0.951823342423529 		0.6911865737560114  0.023286241947913438 		Uiso   ? 		O 		-0.94925
O 1.0  		0.40267767418730677 		0.0017175385219354207  0.02354354848877436 		Uiso   ? 		O 		-0.97459
O 1.0  		0.39658910291543864 		0.49612327019334573  0.027145840060827264 		Uiso   ? 		O 		-0.97348
O 1.0  		0.9007217687822923 		0.001226813229953872  0.03293523723019801 		Uiso   ? 		O 		-1.13799
O 1.0  		0.9046554261013038 		0.5025026989891059  0.027017186790396806 		Uiso   ? 		O 		-0.98200
O 1.0  		0.2571293565404468 		0.04465600157032094  0.025730654086092198 		Uiso   ? 		O 		-0.98194
O 1.0  		0.2556762232375076 		0.5432328982235745  0.021871055973178368 		Uiso   ? 		O 		-0.98200
O 1.0  		0.7580608242805564 		0.050790067720090294  0.023157588677482976 		Uiso   ? 		O 		-0.98194
O 1.0  		0.7601126182480749 		0.5461772499754638  0.02238566905490021 		Uiso   ? 		O 		-0.98200
O 1.0  		0.25655303143132546 		0.9988713318284425  0.026631226979105423 		Uiso   ? 		O 		-0.98194
O 1.0  		0.2543762365589668 		0.4968593581313181  0.02199970924360883 		Uiso   ? 		O 		-0.61067
O 1.0  		0.7552405370502767 		0.00392580233585239  0.027531799872118647 		Uiso   ? 		O 		-0.61064
O 1.0  		0.7612815008468876 		0.5017666110511336  0.023414895218343897 		Uiso   ? 		O 		-0.98200
O 1.0  		0.44711316584874217 		0.04809107861419178  0.022771628866191593 		Uiso   ? 		O 		-0.98194
O 1.0  		0.44344299926309966 		0.540533909117676  0.02650257370867496 		Uiso   ? 		O 		-0.98193
O 1.0  		0.9459655541647657 		0.04539208950829326  0.029332945658145104 		Uiso   ? 		O 		-0.98194
O 1.0  		0.9501445710015388 		0.5471587005594268  0.025344694274800815 		Uiso   ? 		O 		-0.61071
O 1.0  		0.21497697782954617 		0.3432623417410934  0.011192834527450105 		Uiso   ? 		O 		-0.98193
O 1.0  		0.20943606666121797 		0.8379134360584946  0.01183610087960241 		Uiso   ? 		O 		-0.98194
O 1.0  		0.7235469730047116 		0.3412994405731672  0.007590542955397198 		Uiso   ? 		O 		-0.98193
O 1.0  		0.7182690165998409 		0.8398763372264207  0.006175356980662127 		Uiso   ? 		O 		-0.61064
O 1.0  		0.4031065502198833 		0.19211895181077634  0.020327216728012836 		Uiso   ? 		O 		-0.98194
O 1.0  		0.4036139719130785 		0.6882422220041222  0.016081658803807623 		Uiso   ? 		O 		-0.60771
O 1.0  		0.9061999443596496 		0.18770242418294242  0.012479367231754716 		Uiso   ? 		O 		-0.60751
O 1.0  		0.9073078118934721 		0.6943762881538915  0.021613749432317447 		Uiso   ? 		O 		-0.60771
O 1.0  		0.1258123778847561 		0.1398567082147414  0.020455869998443295 		Uiso   ? 		O 		-1.13805
O 1.0  		0.12030433606186008 		0.6349985278241241  0.02611661389738358 		Uiso   ? 		O 		-0.60751
O 1.0  		0.6257600864078595 		0.13764844440082444  0.02624526716781404 		Uiso   ? 		O 		-0.60747
O 1.0  		0.6261776976876061 		0.634017077240161  0.024444121381787587 		Uiso   ? 		O 		-0.60778
O 1.0  		0.16474132093129815 		0.32608695652173914  0.029461598928575566 		Uiso   ? 		O 		-0.60747
O 1.0  		0.16366270338189012 		0.8207380508391403  0.0339644633936417 		Uiso   ? 		O 		-1.13812
O 1.0  		0.6684657091111645 		0.3263323191677299  0.024058161570496204 		Uiso   ? 		O 		-0.60778
O 1.0  		0.6660968764280428 		0.8239277652370204  0.025473347545231274 		Uiso   ? 		O 		-0.60747
O 1.0  		0.27271077349928424 		0.23603886544312494  0.002058452326887376 		Uiso   ? 		O 		-0.60777
O 1.0  		0.26704486142611583 		0.7240651683187752  0.0034736383016224464 		Uiso   ? 		O 		-0.60747
O 1.0  		0.7792697490871874 		0.2326037883992541  0.00668997006238397 		Uiso   ? 		O 		-0.60777
O 1.0  		0.7778254134070961 		0.7328982235744431  0.006304010251092588 		Uiso   ? 		O 		-0.60771
O 1.0  		0.32878485387569717 		0.059623122975758176  0.9660574076623315 		Uiso   ? 		O 		-0.60751
O 1.0  		0.32948949164148555 		0.5586907449209934  0.9634843422537223 		Uiso   ? 		O 		-0.61064
O 1.0  		0.8354183657773125 		0.05888703503778585  0.9677299001779275 		Uiso   ? 		O 		-0.60770
O 1.0  		0.8371197157138841 		0.5569732063990579  0.9687591263413712 		Uiso   ? 		O 		-0.60751
O 1.0  		0.3102414951329896 		0.28560211993326134  0.02122778962102606 		Uiso   ? 		O 		-0.60031
O 1.0  		0.3071759297189035 		0.777554225144764  0.018011457860264538 		Uiso   ? 		O 		-0.61072
O 1.0  		0.8157796868275251 		0.2843753067033075  0.024315468111357125 		Uiso   ? 		O 		-1.13805
O 1.0  		0.8144821026288991 		0.7836882912945333  0.024186814840926663 		Uiso   ? 		O 		-0.60031
O 1.0  		0.41680490258727043 		0.10476984983806066  0.021613749432317447 		Uiso   ? 		O 		-0.60043
O 1.0  		0.41271855327981677 		0.5989302188634802  0.022771628866191593 		Uiso   ? 		O 		-0.59946
O 1.0  		0.9163188331428669 		0.10084404750220827  0.02354354848877436 		Uiso   ? 		O 		-0.60043
O 1.0  		0.9176785366713396 		0.6033467464913143  0.02508738773393989 		Uiso   ? 		O 		-0.59945
O 1.0  		0.3423800695738579 		0.07066444204534301  0.10536702848254753 		Uiso   ? 		O 		-1.13812
O 1.0  		0.33958625654607727 		0.5682598881146335  0.1048524154008257 		Uiso   ? 		O 		-0.60043
O 1.0  		0.8379224255460578 		0.06772009029345373  0.1090979733250309 		Uiso   ? 		O 		-0.59947
O 1.0  		0.8403117105907458 		0.5697320639905782  0.10742548080943491 		Uiso   ? 		O 		-0.60043
O 1.0  		0.34521098861195526 		0.10182549808617136  0.02251432232533067 		Uiso   ? 		O 		-0.59944
O 1.0  		0.34606237785920874 		0.5999116694474433  0.020327216728012836 		Uiso   ? 		O 		-0.60031
O 1.0  		0.847022965240856 		0.10207086073216214  0.02264297559576113 		Uiso   ? 		O 		-0.60031
O 1.0  		0.8492238318357987 		0.6028560211993327  0.02354354848877436 		Uiso   ? 		O 		-0.61068
O 1.0  		0.34754044314772253 		0.035086858376680734  0.02238566905490021 		Uiso   ? 		O 		-0.58722
O 1.0  		0.3456206625318443 		0.5314554912160173  0.020841829809734678 		Uiso   ? 		O 		-0.58719
O 1.0  		0.8452646419112341 		0.03140641868681912  0.02380085502963528 		Uiso   ? 		O 		-0.58723
O 1.0  		0.8485038876452404 		0.5334183923839435  0.025473347545231274 		Uiso   ? 		O 		-0.58720
O 1.0  		0.2221678004213386 		0.2951712631269016  0.025602000815661736 		Uiso   ? 		O 		-1.13805
O 1.0  		0.219209640666397 		0.7903130827362843  0.023028935407052514 		Uiso   ? 		O 		-0.58723
O 1.0  		0.727993018601916 		0.29664343900284623  0.02457277465221805 		Uiso   ? 		O 		-0.58720
O 1.0  		0.7248311662974928 		0.7935027971341644  0.023028935407052514 		Uiso   ? 		O 		-0.61069
O 1.0  		0.22415328740304763 		0.22646972224948478  0.02199970924360883 		Uiso   ? 		O 		-0.61069
O 1.0  		0.22041090564965224 		0.7225929924428305  0.02238566905490021 		Uiso   ? 		O 		-0.58722
O 1.0  		0.7270934535844602 		0.22769653547943863  0.023157588677482976 		Uiso   ? 		O 		-0.58719
O 1.0  		0.7276754115913677 		0.7265187947786829  0.024186814840926663 		Uiso   ? 		O 		-1.13813
O 1.0  		0.15411254332490357 		0.22450682108155856  0.023028935407052514 		Uiso   ? 		O 		-0.58723
O 1.0  		0.15107337077936117 		0.7216115418588674  0.02508738773393989 		Uiso   ? 		O 		-0.58720
O 1.0  		0.6597669383014315 		0.22818726077142018  0.023157588677482976 		Uiso   ? 		O 		-0.58723
O 1.0  		0.6571110791322681 		0.7230837177348122  0.02251432232533067 		Uiso   ? 		O 		-0.58720
O 1.0  		0.20505751260589236 		0.3268230444597115  0.12363579288367299 		Uiso   ? 		O 		-0.61071
O 1.0  		0.20532189592728528 		0.8288350181568359  0.12209195363850746 		Uiso   ? 		O 		-0.58704
O 1.0  		0.7042145226536535 		0.33025812150358236  0.12466501904711669 		Uiso   ? 		O 		-0.58710
O 1.0  		0.7056705130724634 		0.8278535675728728  0.12337848634281208 		Uiso   ? 		O 		-0.58704
O 1.0  		0.45433184219204736 		0.07655314554912161  0.12389309942453391 		Uiso   ? 		O 		-0.58711
O 1.0  		0.4510079643064226 		0.5773383060162922  0.12247791344979884 		Uiso   ? 		O 		-0.58704
O 1.0  		0.951723192170308 		0.07900677200902935  0.12505097885840807 		Uiso   ? 		O 		-0.58710
O 1.0  		0.9522000656640304 		0.5810187457061537  0.12672347137400405 		Uiso   ? 		O 		-0.58704
O 1.0  		0.28807557727989674 		0.01177740700755717  0.9845834786043178 		Uiso   ? 		O 		-0.58710
O 1.0  		0.2911657503864785 		0.5083914024928845  0.9812384935731259 		Uiso   ? 		O 		-0.58704
O 1.0  		0.7900736512125831 		0.006870154087741683  0.9841975187930265 		Uiso   ? 		O 		-0.58710
O 1.0  		0.7928573684024576 		0.5147708312886446  0.9863846243903444 		Uiso   ? 		O 		-0.58704
O 1.0  		0.3835744489912836 		0.05913239768377662  0.9658001011214705 		Uiso   ? 		O 		-0.58711
O 1.0  		0.3835670799263711 		0.5555010305231132  0.9677299001779275 		Uiso   ? 		O 		-0.92972
O 1.0  		0.8895288234076304 		0.05618804593188734  0.9699170057752453 		Uiso   ? 		O 		-0.92971
O 1.0  		0.8927287233193161 		0.5623711846108549  0.9710748852091194 		Uiso   ? 		O 		-0.61067
O 1.0  		0.21978091785656517 		0.3388458141132594  0.04142635307860844 		Uiso   ? 		O 		-0.92972
O 1.0  		0.21995316961855002 		0.8347237216606145  0.042584232512482584 		Uiso   ? 		O 		-0.92971
O 1.0  		0.7223049013161666 		0.3417901658651487  0.040268473644734286 		Uiso   ? 		O 		-0.92972
O 1.0  		0.723206755154548 		0.8438021395622731  0.03898194094042968 		Uiso   ? 		O 		-0.92971
O 1.0  		0.18754118691546284 		0.3206889783099421  0.06175356980662127 		Uiso   ? 		O 		-0.61069
O 1.0  		0.1895448374378127 		0.8185297870252233  0.0643266352152305 		Uiso   ? 		O 		-0.55471
O 1.0  		0.6895087126486764 		0.3216704288939052  0.06162491653619081 		Uiso   ? 		O 		-0.92972
O 1.0  		0.6902878867281772 		0.8234370399450388  0.06059569037274712 		Uiso   ? 		O 		-0.92971
O 1.0  		0.4006176508918855 		0.06772009029345373  0.1042091490486734 		Uiso   ? 		O 		-0.92972
O 1.0  		0.39601883197228355 		0.5685052507606243  0.10575298829383892 		Uiso   ? 		O 		-0.92971
O 1.0  		0.8974284714211739 		0.06943762881538915  0.10858336024330906 		Uiso   ? 		O 		-0.92972
O 1.0  		0.9006107760871638 		0.5721856904504858  0.1084547069728786 		Uiso   ? 		O 		-0.92971
O 1.0  		0.2946474985223758 		0.014721758759446462  0.12119138074549424 		Uiso   ? 		O 		-0.61067
O 1.0  		0.2932272345648688 		0.5137893807046815  0.12247791344979884 		Uiso   ? 		O 		-0.58406
O 1.0  		0.7921110636683892 		0.013494945529492592  0.12749539099658683 		Uiso   ? 		O 		-0.61069
O 1.0  		0.795685479333606 		0.5157522818726077  0.12672347137400405 		Uiso   ? 		O 		-0.61067
O 1.0  		0.4642624261845084 		0.10108941014819904  0.03795271477698599 		Uiso   ? 		O 		-0.58406
O 1.0  		0.46027468491335133 		0.5967219550495633  0.038853287669999216 		Uiso   ? 		O 		-0.61069
O 1.0  		0.9629680630190668 		0.09937187162626364  0.04052578018559521 		Uiso   ? 		O 		-0.61064
O 1.0  		0.9680627792360225 		0.6021199332613604  0.039882513833442906 		Uiso   ? 		O 		-0.58420
O 1.0  		0.4431902216715037 		0.07041907939935224  0.06111030345446896 		Uiso   ? 		O 		-0.61070
O 1.0  		0.4411477612967446 		0.5665423495926981  0.06072434364317758 		Uiso   ? 		O 		-0.58277
O 1.0  		0.9432694075763359 		0.07017371675336147  0.06226818288834311 		Uiso   ? 		O 		-0.61064
O 1.0  		0.947032241691298 		0.5736578663264306  0.06368336886307818 		Uiso   ? 		O 		-0.58420
O 1.0  		0.2972125087060439 		0.3258415938757484  0.12376444615410345 		Uiso   ? 		O 		-0.61071
O 1.0  		0.29688756495561675 		0.825399941112965  0.1259515517514213 		Uiso   ? 		O 		-0.58277
O 1.0  		0.7950529107515478 		0.32706840710570223  0.12569424521056038 		Uiso   ? 		O 		-0.58406
O 1.0  		0.797825509172615 		0.8268721169889097  0.1278813508078782 		Uiso   ? 		O 		-0.55471
O 1.0  		0.45259220168908976 		0.16954558837962508  0.121963300368077 		Uiso   ? 		O 		-0.60771
O 1.0  		0.4531829573188451 		0.6700853862008048  0.1226065667202293 		Uiso   ? 		O 		-0.60031
O 1.0  		0.9513635772145126 		0.16880950044165277  0.121963300368077 		Uiso   ? 		O 		-0.60751
O 1.0  		0.9527473524655696 		0.6700853862008048  0.1262088582922822 		Uiso   ? 		O 		-0.60770
O 1.0  		0.27307660528895644 		0.3430169790951026  0.04245557924205212 		Uiso   ? 		O 		-0.60031
O 1.0  		0.2744187135717334 		0.8420846010403377  0.03821002131784691 		Uiso   ? 		O 		-0.60751
O 1.0  		0.7817716013689622 		0.34767886936892733  0.041297699808177976 		Uiso   ? 		O 		-0.60748
O 1.0  		0.7760269976511524 		0.8440475022082639  0.038853287669999216 		Uiso   ? 		O 		-0.60043
O 1.0  		0.2906975285315814 		0.32216115418588676  0.06162491653619081 		Uiso   ? 		O 		-0.60778
O 1.0  		0.28781390509035204 		0.820001962901168  0.059051851127581594 		Uiso   ? 		O 		-0.59943
O 1.0  		0.793368263472648 		0.32412405535381295  0.061882223077051726 		Uiso   ? 		O 		-0.60747
O 1.0  		0.7910498953806544 		0.8256453037589558  0.05995242402059482 		Uiso   ? 		O 		-0.60043
O 1.0  		0.46477171438770704 		0.15310629109824322  0.037695408236125064 		Uiso   ? 		O 		-0.60777
O 1.0  		0.45990114308179963 		0.6482481107076259  0.039753860563012444 		Uiso   ? 		O 		-0.59947
O 1.0  		0.9657578020498739 		0.15212484051428013  0.03666618207268137 		Uiso   ? 		O 		-0.58406
O 1.0  		0.9633320282987357 		0.6504563745215428  0.04091173999688659 		Uiso   ? 		O 		-0.58420
O 1.0  		0.38294027354223387 		0.113112179801747  0.9650281814988878 		Uiso   ? 		O 		-0.58276
O 1.0  		0.39117187775300444 		0.6119344391009913  0.9648995282284574 		Uiso   ? 		O 		-0.58420
O 1.0  		0.8893196283032397 		0.1101678280498577  0.9669579805553448 		Uiso   ? 		O 		-0.58278
O 1.0  		0.8929116392141521 		0.6158602414368437  0.969016432882232 		Uiso   ? 		O 		-0.58420
O 1.0  		0.4326555234684759 		0.07017371675336147  0.9835542524408741 		Uiso   ? 		O 		-0.58278
O 1.0  		0.43711044802248356 		0.5665423495926981  0.984326172063457 		Uiso   ? 		O 		-0.58420
O 1.0  		0.9322393480458658 		0.05618804593188734  0.9876711570946489 		Uiso   ? 		O 		-0.58272
O 1.0  		0.9329703786801979 		0.5604082834429287  0.9872851972833576 		Uiso   ? 		O 		-0.55471
O 1.0  		0.44776186879352703 		0.16880950044165277  0.05930915766844251 		Uiso   ? 		O 		-0.58406
O 1.0  		0.4403830823879453 		0.6661595838649524  0.05827993150499883 		Uiso   ? 		O 		-0.61067
O 1.0  		0.9451444211489398 		0.16954558837962508  0.05596417263725052 		Uiso   ? 		O 		-0.58406
O 1.0  		0.9444755098444543 		0.6671410344489155  0.06201087634748219 		Uiso   ? 		O 		-1.13805
O 1.0  		0.38285791352765297 		0.1562960054961233  0.9827823328182914 		Uiso   ? 		O 		-1.13812
O 1.0  		0.38811465532581013 		0.6551182647953676  0.9829109860887218 		Uiso   ? 		O 		-1.13805
O 1.0  		0.8898659411827995 		0.15163411522229855  0.9841975187930265 		Uiso   ? 		O 		-1.13812
O 1.0  		0.8875739659593496 		0.6583079791932477  0.9849694384156092 		Uiso   ? 		O 		-0.61069
O 1.0  		0.3911913395087035 		0.1712631269015605  0.12337848634281208 		Uiso   ? 		O 		-1.13806
O 1.0  		0.3903516050001687 		0.6710668367847679  0.12183464709764655 		Uiso   ? 		O 		-1.13812
O 1.0  		0.8860152121733139 		0.1702816763175974  0.12453636577668623 		Uiso   ? 		O 		-1.13804
O 1.0  		0.8926302289420085 		0.6735204632446757  0.12466501904711669 		Uiso   ? 		O 		-1.13799
O 1.0  		0.28499098806217954 		0.0022082638139169692  0.06059569037274712 		Uiso   ? 		O 		-1.13804
O 1.0  		0.2828851101425154 		0.5037295122190598  0.05943781093887297 		Uiso   ? 		O 		-0.55463
O 1.0  		0.7891931423237923 		0.012758857591520267  0.06291144924049542 		Uiso   ? 		O 		-1.13799
O 1.0  		0.791155125877862 		0.5083914024928845  0.062396836158773575 		Uiso   ? 		O 		-1.13805
O 1.0  		0.4607551777680915 		0.09789969575031898  0.006046703710231666 		Uiso   ? 		O 		-1.13799
O 1.0  		0.4614750896336163 		0.5940229659436648  0.00784784949625812 		Uiso   ? 		O 		-1.13804
O 1.0  		0.9596381142835879 		0.08931200314064187  0.008619769118840886 		Uiso   ? 		O 		-1.13799
O 1.0  		0.9609015309217234 		0.5967219550495633  0.0064326635215230495 		Uiso   ? 		O 		-0.55540
O 1.0  		0.38090847730032595 		0.16684659927372658  0.059566464209303435 		Uiso   ? 		O 		-0.55463
O 1.0  		0.37628326551218033 		0.6624791441750909  0.05532090628509822 		Uiso   ? 		O 		-0.55538
O 1.0  		0.8831871012421657 		0.16930022573363432  0.05519225301466776 		Uiso   ? 		O 		-0.55463
O 1.0  		0.8813089875945674 		0.6678771223868879  0.06059569037274712 		Uiso   ? 		O 		-1.13804
O 1.0  		0.3993636001715429 		0.12513494945529494  0.1051097219416866 		Uiso   ? 		O 		-0.55535
O 1.0  		0.4000200944921626 		0.6266561978604377  0.1042091490486734 		Uiso   ? 		O 		-0.55463
O 1.0  		0.892765780320711 		0.12513494945529494  0.10536702848254753 		Uiso   ? 		O 		-0.55537
O 1.0  		0.8999284571929453 		0.6286190990283639  0.10806874716158722 		Uiso   ? 		O 		-0.55463
O 1.0  		0.13069134118647707 		0.1619393463539111  0.05943781093887297 		Uiso   ? 		O 		-0.55534
O 1.0  		0.13222186791899926 		0.6622337815291001  0.06304010251092587 		Uiso   ? 		O 		-1.13799
O 1.0  		0.6295701223710444 		0.16439297281381884  0.06149626326576035 		Uiso   ? 		O 		-0.55463
O 1.0  		0.6254597013410064 		0.6597801550691923  0.05930915766844251 		Uiso   ? 		O 		-0.55549
O 1.0  		0.3505001451195886 		0.15065266463833546  0.0038595981129138294 		Uiso   ? 		O 		-0.55471
O 1.0  		0.35091775639933515 		0.647021297477672  0.000257306540860922 		Uiso   ? 		O 		-0.61064
O 1.0  		0.8505288664332928 		0.1464814996564923  0.9993786047038209 		Uiso   ? 		O 		-0.55471
O 1.0  		0.8530584264825576 		0.6521739130434783  0.004631517735496595 		Uiso   ? 		O 		-0.55471
O 1.0  		0.2909525459351813 		0.2593483168122485  0.05763666515284652 		Uiso   ? 		O 		-0.61071
O 1.0  		0.2845376023549507 		0.7552262243596035  0.05647878571897237 		Uiso   ? 		O 		-0.98192
O 1.0  		0.7904600000138893 		0.2600844047502209  0.05930915766844251 		Uiso   ? 		O 		-0.98194
O 1.0  		0.791819703542362 		0.7625871037393268  0.05943781093887297 		Uiso   ? 		O 		-0.98193
O 1.0  		0.1360346306551778 		0.17985081951123763  0.9822677197365696 		Uiso   ? 		O 		-0.98194
O 1.0  		0.12297090837279653 		0.6637059574050447  0.9889576897989536 		Uiso   ? 		O 		-0.98193
O 1.0  		0.635579109410247 		0.17003631367160663  0.9852267449564702 		Uiso   ? 		O 		-0.98194
O 1.0  		0.6404502166860658 		0.6646874079890078  0.9859986645790529 		Uiso   ? 		O 		-1.13804
O 1.0  		0.13916039988018547 		0.1678280498576897  0.12543693866969946 		Uiso   ? 		O 		-0.98199
O 1.0  		0.13666241096129447 		0.6698400235548141  0.1259515517514213 		Uiso   ? 		O 		-0.98193
O 1.0  		0.6430074678189326 		0.16831877514967125  0.12582289848099085 		Uiso   ? 		O 		-0.98200
O 1.0  		0.637468877796564 		0.6693492982628326  0.12389309942453391 		Uiso   ? 		O 		-0.98194
O 1.0  		0.18417421350362256 		0.32117970360192366  0.9890863430693839 		Uiso   ? 		O 		-0.56721
O 1.0  		0.18244932781437803 		0.8141132593973894  0.9890863430693839 		Uiso   ? 		O 		-0.91724
O 1.0  		0.6915590780582596 		0.3189714397880067  0.9862559711199139 		Uiso   ? 		O 		-0.60244
O 1.0  		0.6860093692670834 		0.8119049955834725  0.9856127047677615 		Uiso   ? 		O 		-0.91724
O 1.0  		0.2794586471987212 		0.2733339876337227  0.9841975187930265 		Uiso   ? 		O 		-0.91715
O 1.0  		0.2688374013251498 		0.7539994111296496  0.9829109860887218 		Uiso   ? 		O 		-0.91724
O 1.0  		0.7839561386082341 		0.2645009323780548  0.9859986645790529 		Uiso   ? 		O 		-0.98153
O 1.0  		0.7867944757201655 		0.7652860928452253  0.9850980916860397 		Uiso   ? 		O 		-1.13516
O 1.0  		0.29840729721241066 		0.2627833938561194  0.12440771250625576 		Uiso   ? 		O 		-0.98153
O 1.0  		0.2959662493615361 		0.7640592796152714  0.12453636577668623 		Uiso   ? 		O 		-0.98153
O 1.0  		0.7964361177076599 		0.2652370203160271  0.12685212464443452 		Uiso   ? 		O 		-0.56686
O 1.0  		0.8002470952677905 		0.7662675434291885  0.12672347137400405 		Uiso   ? 		O 		-0.56684
O 1.0  		0.3094524035246391 		0.04858180390617333  0.03653752880225092 		Uiso   ? 		O 		-0.56684
O 1.0  		0.3080890806351486 		0.5469133379134361  0.034479076475363545 		Uiso   ? 		O 		-0.59988
O 1.0  		0.8089117141581784 		0.051771518304053396  0.037824061506555526 		Uiso   ? 		O 		-0.59988
O 1.0  		0.8096973647145677 		0.5488762390813623  0.0375667549656946 		Uiso   ? 		O 		-0.59987
O 1.0  		0.4003412562136613 		0.04931789184414565  0.03615156899095954 		Uiso   ? 		O 		-0.60243
O 1.0  		0.39721227325467023 		0.5466679752674454  0.036280222261389994 		Uiso   ? 		O 		-0.59988
O 1.0  		0.8973645669152792 		0.05103543036608107  0.03859598112913829 		Uiso   ? 		O 		-0.56685
O 1.0  		0.9040517988517267 		0.5505937776032978  0.038853287669999216 		Uiso   ? 		O 		-0.56684
O 1.0  		0.4009061382608963 		0.14181960938266758  0.03383581012321124 		Uiso   ? 		O 		-0.56684
O 1.0  		0.39719662585293314 		0.6384336048679949  0.03370715685278078 		Uiso   ? 		O 		-1.13516
O 1.0  		0.902718114889797 		0.14206497202865837  0.03267793068933709 		Uiso   ? 		O 		-0.56730
O 1.0  		0.9028598184523089 		0.643831583079792  0.037309448424833684 		Uiso   ? 		O 		-0.56739
O 1.0  		0.32669050035187464 		0.05373441947197959  0.07925041458516396 		Uiso   ? 		O 		-0.59953
O 1.0  		0.333478661470578 		0.561144371380901  0.07719196225827658 		Uiso   ? 		O 		-0.56746
O 1.0  		0.833370321513689 		0.0679654529394445  0.08066560055989903 		Uiso   ? 		O 		-0.59953
O 1.0  		0.8367627952060489 		0.5643340857787811  0.07950772112602489 		Uiso   ? 		O 		-0.60206
O 1.0  		0.30492437121485455 		0.04760035332221023  0.009777648552715033 		Uiso   ? 		O 		-0.60206
O 1.0  		0.3056530807032272 		0.5454411620374914  0.007333236414536276 		Uiso   ? 		O 		-0.60206
O 1.0  		0.8067363478437553 		0.04784571596820101  0.010034955093575956 		Uiso   ? 		O 		-0.60206
O 1.0  		0.8107926849216475 		0.5493669643733439  0.00913438220056273 		Uiso   ? 		O 		-0.60243
O 1.0  		0.4007662365583204 		0.04931789184414565  0.008491115848410426 		Uiso   ? 		O 		-0.56720
O 1.0  		0.3984367496975194 		0.542742172931593  0.009520342011854113 		Uiso   ? 		O 		-0.56740
O 1.0  		0.8983020168720868 		0.04441063892433016  0.012736673772615637 		Uiso   ? 		O 		-0.56734
O 1.0  		0.8999968903317699 		0.5471587005594268  0.012222060690893793 		Uiso   ? 		O 		-0.59953
O 1.0  		0.16718514456408806 		0.28167631759740897  0.012479367231754716 		Uiso   ? 		O 		-0.56743
O 1.0  		0.16210208308585117 		0.7768181372067917  0.013894553206489786 		Uiso   ? 		O 		-0.59953
O 1.0  		0.6755097802214918 		0.2792226911375012  0.010549568175297801 		Uiso   ? 		O 		-1.13516
O 1.0  		0.6684332944016884 		0.7763274119148101  0.009906301823145496 		Uiso   ? 		O 		-0.58277
O 1.0  		0.40115149777865805 		0.14231033467464912  0.00668997006238397 		Uiso   ? 		O 		-0.58279
O 1.0  		0.40095571026400034 		0.6374521542840318  0.00668997006238397 		Uiso   ? 		O 		-0.58279
O 1.0  		0.9006061661202788 		0.13274119148100896  0.007075929873675354 		Uiso   ? 		O 		-0.58279
O 1.0  		0.9040930925180062 		0.641623319265875  0.010163608364006418 		Uiso   ? 		O 		-0.58278
O 1.0  		0.1722764843791496 		0.19113750122681325  0.0052747840876489005 		Uiso   ? 		O 		-0.58279
O 1.0  		0.16465881493269469 		0.6833349690843067  0.010163608364006418 		Uiso   ? 		O 		-0.58355
O 1.0  		0.6724848265197512 		0.18647561095298854  0.008748422389271347 		Uiso   ? 		O 		-0.58356
O 1.0  		0.675616666594613 		0.6852978702522329  0.010420914904867339 		Uiso   ? 		O 		-0.56721
O 1.0  		0.389248266099276 		0.06453037589557367  0.07732061552870705 		Uiso   ? 		O 		-0.58355
O 1.0  		0.38907655030720245 		0.5584453822750024  0.07796388188085936 		Uiso   ? 		O 		-0.58356
O 1.0  		0.8904556415566202 		0.06526646383354599  0.08092290710075996 		Uiso   ? 		O 		-0.58354
O 1.0  		0.8930333450510537 		0.5685052507606243  0.08105156037119042 		Uiso   ? 		O 		-0.56721
O 1.0  		0.3919417182397457 		0.12219059770340564  0.07732061552870705 		Uiso   ? 		O 		-0.72725
O 1.0  		0.3851105919377039 		0.6197860437726961  0.07693465571741566 		Uiso   ? 		O 		-0.58355
O 1.0  		0.8952128990214396 		0.13470409264893515  0.07770657533999843 		Uiso   ? 		O 		-0.92578
O 1.0  		0.8924649082928682 		0.6234664834625577  0.08040829401903811 		Uiso   ? 		O 		-0.55543
O 1.0  		0.18394401442660824 		0.20512317204828737  0.07925041458516396 		Uiso   ? 		O 		-0.92578
O 1.0  		0.1881887699542457 		0.707871233683384  0.07937906785559443 		Uiso   ? 		O 		-0.92578
O 1.0  		0.6840824625454164 		0.21052115026008442  0.07899310804430304 		Uiso   ? 		O 		-0.92578
O 1.0  		0.6730144857505609 		0.6987928157817254  0.08053694728946857 		Uiso   ? 		O 		-0.92578
O 1.0  		0.18007898523936566 		0.2743154382176858  0.08220943980506457 		Uiso   ? 		O 		-0.92578
O 1.0  		0.17802540609579925 		0.7623417410933361  0.08220943980506457 		Uiso   ? 		O 		-0.58306
O 1.0  		0.6781952950021042 		0.2701442732358426  0.08130886691205134 		Uiso   ? 		O 		-0.58306
O 1.0  		0.675125574257089 		0.7731376975169301  0.08298135942764734 		Uiso   ? 		O 		-0.56223
O 1.0  		0.3488506883320804 		0.15457846697418787  0.0369234886135423 		Uiso   ? 		O 		-0.72731
O 1.0  		0.34828918268673936 		0.6553636274413583  0.03177735779632386 		Uiso   ? 		O 		-0.60243
O 1.0  		0.8536069791741216 		0.16071253312395722  0.031520051255462936 		Uiso   ? 		O 		-0.58477
O 1.0  		0.8512052771455678 		0.6578172539012661  0.03743810169526414 		Uiso   ? 		O 		-0.55543
O 1.0  		0.2488818129598938 		0.26572774560800866  0.08015098747817719 		Uiso   ? 		O 		-0.58306
O 1.0  		0.2456236737651334 		0.7674943566591423  0.07950772112602489 		Uiso   ? 		O 		-0.60244
O 1.0  		0.74734441142265 		0.2698989105898518  0.0807942538303295 		Uiso   ? 		O 		-0.58477
O 1.0  		0.7516877749865839 		0.7741191481008931  0.08130886691205134 		Uiso   ? 		O 		-0.59953
O 1.0  		0.18560275579795404 		0.22671508489547554  0.9660574076623315 		Uiso   ? 		O 		-0.59953
O 1.0  		0.16931649043923824 		0.7037000687015409  0.9685018198005102 		Uiso   ? 		O 		-0.59987
O 1.0  		0.6881285734425252 		0.21223868878201985  0.9678585534483579 		Uiso   ? 		O 		-0.60206
O 1.0  		0.6840005571667915 		0.7041907939935225  0.9669579805553448 		Uiso   ? 		O 		-0.59988
O 1.0  		0.19118627553150802 		0.20855824909215823  0.10729682753900445 		Uiso   ? 		O 		-0.72750
O 1.0  		0.18985814313340912 		0.7137599371871627  0.1067822144572826 		Uiso   ? 		O 		-0.56232
O 1.0  		0.6933181479918826 		0.21199332613602906  0.10639625464599123 		Uiso   ? 		O 		-0.60207
O 1.0  		0.6957884458271716 		0.7120423986652273  0.10639625464599123 		Uiso   ? 		O 		-0.56232
O 1.0  		0.18352929258776607 		0.2782412405535381  0.970688925397828 		Uiso   ? 		O 		-0.58306
O 1.0  		0.1686846361361478 		0.7640592796152714  0.9695310459639539 		Uiso   ? 		O 		-0.58478
O 1.0  		0.6894813458581535 		0.26891746000588873  0.9678585534483579 		Uiso   ? 		O 		-0.56720
O 1.0  		0.6813336115538544 		0.7643046422612623  0.9667006740144838 		Uiso   ? 		O 		-0.58478
O 1.0  		0.19818879333254427 		0.271861811757778  0.10652490791642169 		Uiso   ? 		O 		-0.55543
O 1.0  		0.19474871216492712 		0.7677397193051331  0.10832605370244815 		Uiso   ? 		O 		-0.58478
O 1.0  		0.6962416855503777 		0.2730886249877319  0.10742548080943491 		Uiso   ? 		O 		-0.56721
O 1.0  		0.7003549636962865 		0.7738737854549024  0.10639625464599123 		Uiso   ? 		O 		-0.58477
O 1.0  		0.2391447766700864 		0.27897732849151047  0.9668293272849142 		Uiso   ? 		O 		-0.56235
O 1.0  		0.22486305442174442 		0.7620963784473452  0.9663147142031925 		Uiso   ? 		O 		-0.58306
O 1.0  		0.7423256600773419 		0.26793600942192564  0.9685018198005102 		Uiso   ? 		O 		-0.56222
O 1.0  		0.7380925592884231 		0.7630778290313083  0.9670866338257752 		Uiso   ? 		O 		-0.56227
O 1.0  		0.25230804858571 		0.2708803611738149  0.10768278735029584 		Uiso   ? 		O 		-0.58306
O 1.0  		0.2514289682548545 		0.7748552360388655  0.10755413407986537 		Uiso   ? 		O 		-1.13516
O 1.0  		0.7512437708382937 		0.2725978996957503  0.10896932005460044 		Uiso   ? 		O 		-1.13516
O 1.0  		0.7535432454695332 		0.7748552360388655  0.10884066678416998 		Uiso   ? 		O 		-1.13516
O 1.0  		0.3514990647773423 		0.04342918834036706  0.05249053433562808 		Uiso   ? 		O 		-0.55402
O 1.0  		0.3500700031969875 		0.5407792717636668  0.050432082008740706 		Uiso   ? 		O 		-1.12612
O 1.0  		0.8522092447222746 		0.04784571596820101  0.05416302685122407 		Uiso   ? 		O 		-1.12612
O 1.0  		0.8559873529369728 		0.5483855137893807  0.053648413769502225 		Uiso   ? 		O 		-1.12612
O 1.0  		0.2586873960475147 		0.28363921876533515  0.010034955093575956 		Uiso   ? 		O 		-1.12613
O 1.0  		0.2557116410468772 		0.7753459613308471  0.007590542955397198 		Uiso   ? 		O 		-1.12614
O 1.0  		0.7682059599482948 		0.28314849347335364  0.009520342011854113 		Uiso   ? 		O 		-0.55402
O 1.0  		0.7657801861971567 		0.7814800274806164  0.009648995282284573 		Uiso   ? 		O 		-0.55402
O 1.0  		0.40711784392760136 		0.09814505839630976  0.05081804182003209 		Uiso   ? 		O 		-0.55402
O 1.0  		0.40612256031475347 		0.5972126803415448  0.0521045745243367 		Uiso   ? 		O 		-0.55402
O 1.0  		0.909127036629095 		0.10133477279418981  0.05377706703993269 		Uiso   ? 		O 		-0.60243
O 1.0  		0.9104210014667036 		0.6028560211993327  0.05351976049907176 		Uiso   ? 		O 		-0.55402
O 1.0  		0.34992511822552563 		0.09765433310432821  0.05313380068778038 		Uiso   ? 		O 		-0.72747
O 1.0  		0.3488881676443977 		0.5945136912356463  0.049917468927018864 		Uiso   ? 		O 		-0.55543
O 1.0  		0.8542235593774756 		0.10329767396211602  0.05197592125390624 		Uiso   ? 		O 		-0.72716
O 1.0  		0.8545272885211893 		0.6011384826773973  0.05313380068778038 		Uiso   ? 		O 		-0.55543
O 1.0  		0.35032273177966167 		0.04490136421631171  0.9937178608048807 		Uiso   ? 		O 		-0.72713
O 1.0  		0.35113245405863514 		0.5407792717636668  0.9925599813710064 		Uiso   ? 		O 		-0.55543
O 1.0  		0.8505968126111276 		0.0412209245264501  0.9964195794839203 		Uiso   ? 		O 		-0.98153
O 1.0  		0.8517528235901187 		0.5454411620374914  0.9974488056473639 		Uiso   ? 		O 		-1.12611
O 1.0  		0.39929505337372945 		0.09397389341446659  0.9942324738866024 		Uiso   ? 		O 		-0.98153
O 1.0  		0.4010533443783175 		0.5913239768377663  0.9946184336978938 		Uiso   ? 		O 		-0.98153
O 1.0  		0.9046929700636883 		0.0890666404946511  0.9947470869683244 		Uiso   ? 		O 		-0.91718
O 1.0  		0.9046309810767188 		0.5925507900677202  0.9975774589177944 		Uiso   ? 		O 		-0.91726
Ti 1.0  		0.40377861060828474 		0.06256747472764747  0.413877570974793 		Uiso   ? 		Ti 		2.08366
Ti 1.0  		0.40058388895842933 		0.5589361075669841  0.4132343046226407 		Uiso   ? 		Ti 		2.08326
Ti 1.0  		0.9010625549274008 		0.06183138678967515  0.4149067971382367 		Uiso   ? 		Ti 		2.08289
Ti 1.0  		0.9000408784460092 		0.555746393169104  0.4118191186479056 		Uiso   ? 		Ti 		2.08337
Ti 1.0  		0.40033208528881276 		0.13642163117087058  0.4149067971382367 		Uiso   ? 		Ti 		2.08397
Ti 1.0  		0.39909144215820314 		0.6349985278241241  0.412205078459197 		Uiso   ? 		Ti 		2.08144
Ti 1.0  		0.8969609638452445 		0.1322504661890274  0.4145208373269453 		Uiso   ? 		Ti 		2.08383
Ti 1.0  		0.901475150613228 		0.6342624398861518  0.4118191186479056 		Uiso   ? 		Ti 		2.08184
Ti 1.0  		0.18622214410825716 		0.19947983119049956  0.4156787167608194 		Uiso   ? 		Ti 		2.06719
Ti 1.0  		0.18824338987630276 		0.7007557169496517  0.412205078459197 		Uiso   ? 		Ti 		2.06099
Ti 1.0  		0.6817404283578726 		0.19776229266856415  0.4149067971382367 		Uiso   ? 		Ti 		2.06062
Ti 1.0  		0.6866314520253467 		0.7022278928255963  0.4176085158172763 		Uiso   ? 		Ti 		2.06589
Ti 1.0  		0.18439452737682063 		0.2752968888016489  0.41439218405651485 		Uiso   ? 		Ti 		2.06240
Ti 1.0  		0.19036327600567862 		0.7768181372067917  0.40898874669843543 		Uiso   ? 		Ti 		2.06438
Ti 1.0  		0.6804123282848074 		0.2762783393856119  0.41593602330168034 		Uiso   ? 		Ti 		2.05620
Ti 1.0  		0.686479684949962 		0.7792717636666995  0.415550063490389 		Uiso   ? 		Ti 		2.05958
Ti 1.0  		0.2621418587268442 		0.27652370203160276  0.4168365961946936 		Uiso   ? 		Ti 		2.06106
Ti 1.0  		0.26932860732166286 		0.7787810383747179  0.41091854575489234 		Uiso   ? 		Ti 		2.06172
Ti 1.0  		0.7574893197724102 		0.2770144273235843  0.4132343046226407 		Uiso   ? 		Ti 		2.05991
Ti 1.0  		0.7623146047490198 		0.7804985768966534  0.4176085158172763 		Uiso   ? 		Ti 		2.08446
Ti 1.0  		0.33586924473032453 		0.05594268328589656  0.4815491912212154 		Uiso   ? 		Ti 		2.06607
Ti 1.0  		0.33303608588022315 		0.5577092943370302  0.4801340052464804 		Uiso   ? 		Ti 		2.06510
Ti 1.0  		0.8321236075332252 		0.05569732063990579  0.48090592486906314 		Uiso   ? 		Ti 		2.06183
Ti 1.0  		0.8380201409943304 		0.5608990087349103  0.48064861832820227 		Uiso   ? 		Ti 		2.06222
Ti 1.0  		0.1848115703616221 		0.20855824909215823  0.48399360335939423 		Uiso   ? 		Ti 		2.08881
Ti 1.0  		0.19715734530632545 		0.7164589262930612  0.4791047790830367 		Uiso   ? 		Ti 		2.08890
Ti 1.0  		0.6934778524271248 		0.20168809500441653  0.48129188468035455 		Uiso   ? 		Ti 		2.08893
Ti 1.0  		0.6876809499332173 		0.7115516733732457  0.48476552298197695 		Uiso   ? 		Ti 		2.08881
Ti 1.0  		0.18141966496420722 		0.2752968888016489  0.48090592486906314 		Uiso   ? 		Ti 		2.08890
Ti 1.0  		0.19267011970183065 		0.7827068407105703  0.4753738342405533 		Uiso   ? 		Ti 		2.08881
Ti 1.0  		0.6863180649957948 		0.26769064677593485  0.4833503370072419 		Uiso   ? 		Ti 		2.08893
Ti 1.0  		0.6871171554669506 		0.7792717636666995  0.48296437719595053 		Uiso   ? 		Ti 		2.08890
Ti 1.0  		0.3956309086290194 		0.1312690156050643  0.48090592486906314 		Uiso   ? 		Ti 		2.08876
Ti 1.0  		0.3983289707363743 		0.6283737363823731  0.4805199650577717 		Uiso   ? 		Ti 		2.08881
Ti 1.0  		0.8912718726375157 		0.12979683972911965  0.48193515103250684 		Uiso   ? 		Ti 		2.08890
Ti 1.0  		0.9073327438790466 		0.6281283737363824  0.4775609398378712 		Uiso   ? 		Ti 		2.08881
Ti 1.0  		0.2515590170786478 		0.2787319658455197  0.48399360335939423 		Uiso   ? 		Ti 		2.08890
Ti 1.0  		0.26523667412534474 		0.7858965551084504  0.4767890202152884 		Uiso   ? 		Ti 		2.08876
Ti 1.0  		0.7605692666982088 		0.27382471292570426  0.4805199650577717 		Uiso   ? 		Ti 		2.08893
Ti 1.0  		0.7588666185465788 		0.782952203356561  0.4846368697115465 		Uiso   ? 		Ti 		2.08875
Ti 1.0  		0.3158002288649916 		0.01962901167926195  0.44719876801628233 		Uiso   ? 		Ti 		2.08893
Ti 1.0  		0.31354759946386235 		0.5221317106683679  0.44668415493456054 		Uiso   ? 		Ti 		2.08875
Ti 1.0  		0.8120874610133244 		0.019874374325252724  0.4473274212867128 		Uiso   ? 		Ti 		2.08893
Ti 1.0  		0.8134800338872292 		0.5228677986063401  0.4473274212867128 		Uiso   ? 		Ti 		2.08876
Ti 1.0  		0.4435476291403287 		0.08685837668073412  0.44565492877111684 		Uiso   ? 		Ti 		2.07817
Ti 1.0  		0.4395446137694352 		0.5854352733339877  0.446812808204991 		Uiso   ? 		Ti 		2.07818
Ti 1.0  		0.9420255017028212 		0.088085189910688  0.4483566474501565 		Uiso   ? 		Ti 		2.07817
Ti 1.0  		0.9386071711118289 		0.5763568554323291  0.4443683960668122 		Uiso   ? 		Ti 		2.07818
Ti 1.0  		0.3743055208973844 		0.14599077436451074  0.44861395399101744 		Uiso   ? 		Ti 		2.07817
Ti 1.0  		0.37733227645906126 		0.6480027480616352  0.4473274212867128 		Uiso   ? 		Ti 		2.07818
Ti 1.0  		0.8720801842520239 		0.14623613701050153  0.4464268483936996 		Uiso   ? 		Ti 		2.08893
Ti 1.0  		0.8842199455012862 		0.6494749239375798  0.4464268483936996 		Uiso   ? 		Ti 		2.07817
Ti 1.0  		0.14668553214019797 		0.1850034350770439  0.449900486695322 		Uiso   ? 		Ti 		2.08880
Ti 1.0  		0.15391394770329678 		0.689469035234076  0.4473274212867128 		Uiso   ? 		Ti 		2.07818
Ti 1.0  		0.6491831227312558 		0.18279517126312692  0.4491285670727393 		Uiso   ? 		Ti 		2.07817
Ti 1.0  		0.6470948400572875 		0.6877514967121405  0.45144432594048756 		Uiso   ? 		Ti 		2.07818
Ti 1.0  		0.20395755010689373 		0.3135734615762097  0.4480993409092956 		Uiso   ? 		Ti 		2.08876
Ti 1.0  		0.21151233797835503 		0.8165668858572971  0.4414093708469116 		Uiso   ? 		Ti 		2.07817
Ti 1.0  		0.7063894020070871 		0.31038374717832956  0.451572979210918 		Uiso   ? 		Ti 		2.07819
Ti 1.0  		0.7053482960950301 		0.8182844243792325  0.4487426072614479 		Uiso   ? 		Ti 		2.08890
Ti 1.0  		0.2737561160762258 		0.25640396506035923  0.4526022053743617 		Uiso   ? 		Ti 		2.07934
Ti 1.0  		0.2807961131895794 		0.7596427519874375  0.445140315689395 		Uiso   ? 		Ti 		2.07935
Ti 1.0  		0.7767772950482391 		0.2556678771223869  0.4457835820415473 		Uiso   ? 		Ti 		2.07934
Ti 1.0  		0.7786693845805155 		0.7613602905093729  0.451572979210918 		Uiso   ? 		Ti 		2.07935
Ti 1.0  		0.2744802155977133 		0.3148002748061635  0.45170163248134854 		Uiso   ? 		Ti 		2.07934
Ti 1.0  		0.2821248138826232 		0.8175483364412602  0.4423099437399249 		Uiso   ? 		Ti 		2.07935
Ti 1.0  		0.7771662246385164 		0.3138188242222004  0.446812808204991 		Uiso   ? 		Ti 		2.07934
Ti 1.0  		0.7781995558586265 		0.8177936990872511  0.4505437530474743 		Uiso   ? 		Ti 		2.07935
Ti 1.0  		0.40958390509800585 		0.0699283541073707  0.4796193921647586 		Uiso   ? 		Ti 		2.07934
Ti 1.0  		0.4042971510702873 		0.5667877122386888  0.47923343235346716 		Uiso   ? 		Ti 		2.07935
Ti 1.0  		0.9047758170392589 		0.06968299146137992  0.481420537950785 		Uiso   ? 		Ti 		2.07934
Ti 1.0  		0.9044397545200245 		0.561144371380901  0.4776895931083016 		Uiso   ? 		Ti 		2.07935
Ti 1.0  		0.14643283588255737 		0.25419570124644225  0.446812808204991 		Uiso   ? 		Ti 		2.08794
Ti 1.0  		0.15350570234134314 		0.757925213465502  0.4423099437399249 		Uiso   ? 		Ti 		2.06631
Ti 1.0  		0.6488077467147342 		0.25174207478653454  0.45067240631790484 		Uiso   ? 		Ti 		2.06632
Ti 1.0  		0.6470634315948243 		0.7586613014034744  0.4488712605318783 		Uiso   ? 		Ti 		2.06624
Ti 1.0  		0.32535214177299243 		0.05913239768377662  0.415550063490389 		Uiso   ? 		Ti 		2.06623
Ti 1.0  		0.3210139564708886 		0.5574639316910394  0.41439218405651485 		Uiso   ? 		Ti 		2.08794
Ti 1.0  		0.8221870340248653 		0.059623122975758176  0.4149067971382367 		Uiso   ? 		Ti 		2.08794
Ti 1.0  		0.8241096717566143 		0.5594268328589656  0.41413487751565387 		Uiso   ? 		Ti 		2.08794
Ti 1.0  		0.20542263011659684 		0.1847580724310531  0.45105836612919614 		Uiso   ? 		Ti 		2.07129
Ti 1.0  		0.2113761046457185 		0.6892236725880853  0.44719876801628233 		Uiso   ? 		Ti 		2.08794
Ti 1.0  		0.7073813582269626 		0.1840219844930808  0.44668415493456054 		Uiso   ? 		Ti 		2.07130
Ti 1.0  		0.7066249576549879 		0.6882422220041222  0.4527308586447922 		Uiso   ? 		Ti 		2.06626
Ti 1.0  		0.4358401816054588 		0.15261556580626168  0.450157793236183 		Uiso   ? 		Ti 		2.07130
Ti 1.0  		0.43950440768412424 		0.6546275395033861  0.4462981951232691 		Uiso   ? 		Ti 		2.07130
Ti 1.0  		0.9336477143055306 		0.15335165374423398  0.4487426072614479 		Uiso   ? 		Ti 		2.07129
Ti 1.0  		0.9424093833741451 		0.6489841986455982  0.44359647644422945 		Uiso   ? 		Ti 		2.07129
Ti 1.0  		0.3883931761570494 		0.02797134164294828  0.44668415493456054 		Uiso   ? 		Ti 		2.07288
Ti 1.0  		0.3833517816470925 		0.525321425066248  0.44822799417972603 		Uiso   ? 		Ti 		2.07288
Ti 1.0  		0.886706701992381 		0.02674452841299441  0.45041509977704386 		Uiso   ? 		Ti 		2.07288
Ti 1.0  		0.8813782809963823 		0.5213956227303955  0.4461695418528387 		Uiso   ? 		Ti 		2.07289
Ti 1.0  		0.3088811586595045 		0.07336343115124154  0.45144432594048756 		Uiso   ? 		Ti 		2.07288
Ti 1.0  		0.31030660087884165 		0.5768475807243105  0.4492572203431697 		Uiso   ? 		Ti 		2.08794
Ti 1.0  		0.809034880878049 		0.07581705761114928  0.4508010595883353 		Uiso   ? 		Ti 		2.06627
Ti 1.0  		0.8154133357518296 		0.5802826577681814  0.4497718334248916 		Uiso   ? 		Ti 		2.07288
Ti 1.0  		0.40440728350242544 		0.060849936205712045  0.12736673772615636 		Uiso   ? 		Ti 		2.08366
Ti 1.0  		0.4025379674776751 		0.561144371380901  0.12813865734873914 		Uiso   ? 		Ti 		2.08326
Ti 1.0  		0.9035883652727709 		0.06305820001962902  0.13045441621648743 		Uiso   ? 		Ti 		2.08289
Ti 1.0  		0.9046369705926176 		0.5640887231327903  0.13135498910950064 		Uiso   ? 		Ti 		2.08337
Ti 1.0  		0.4071391075432365 		0.06673863970949064  0.27145840060827264 		Uiso   ? 		Ti 		2.08397
Ti 1.0  		0.40642205279358257 		0.5667877122386888  0.2732595463942991 		Uiso   ? 		Ti 		2.08144
Ti 1.0  		0.9063266657904705 		0.0642850132495829  0.272101666960425 		Uiso   ? 		Ti 		2.08383
Ti 1.0  		0.9023805914875935 		0.562125821964864  0.2712010940674118 		Uiso   ? 		Ti 		2.08184
Ti 1.0  		0.3309120767449518 		0.06600255177151831  0.19516701124300928 		Uiso   ? 		Ti 		2.06719
Ti 1.0  		0.3303570475764994 		0.562125821964864  0.19593893086559205 		Uiso   ? 		Ti 		2.06099
Ti 1.0  		0.8271576419250045 		0.06403965060359211  0.19838334300377083 		Uiso   ? 		Ti 		2.06062
Ti 1.0  		0.8312949917934975 		0.5635979978408088  0.19851199627420127 		Uiso   ? 		Ti 		2.06589
Ti 1.0  		0.4057100782879154 		0.13740308175483368  0.1278813508078782 		Uiso   ? 		Ti 		2.06240
Ti 1.0  		0.4044782327801537 		0.6376975169300226  0.1276240442670173 		Uiso   ? 		Ti 		2.06438
Ti 1.0  		0.9015964018141734 		0.13642163117087058  0.1295538433234742 		Uiso   ? 		Ti 		2.05620
Ti 1.0  		0.905293497238271 		0.6389243301599765  0.1305830694869179 		Uiso   ? 		Ti 		2.05958
Ti 1.0  		0.4088997520188177 		0.14378251055059377  0.27480338563946466 		Uiso   ? 		Ti 		2.06106
Ti 1.0  		0.4072669978889813 		0.6428501324958289  0.2731308931238687 		Uiso   ? 		Ti 		2.06172
Ti 1.0  		0.908111381988636 		0.14010207086073218  0.27390281274645145 		Uiso   ? 		Ti 		2.05991
Ti 1.0  		0.9034051574098896 		0.6376975169300226  0.27248762677171634 		Uiso   ? 		Ti 		2.08446
Ti 1.0  		0.18793086310974128 		0.201197369712435  0.13032576294605697 		Uiso   ? 		Ti 		2.06607
Ti 1.0  		0.18622589381215202 		0.7039454313475317  0.1295538433234742 		Uiso   ? 		Ti 		2.06510
Ti 1.0  		0.6894164674302794 		0.20291490823437042  0.1301971096756265 		Uiso   ? 		Ti 		2.06183
Ti 1.0  		0.6877508439550108 		0.701491804887624  0.12981114986433512 		Uiso   ? 		Ti 		2.06222
Ti 1.0  		0.4085469868419115 		0.14010207086073218  0.19503835797257885 		Uiso   ? 		Ti 		2.08881
Ti 1.0  		0.40483747443394835 		0.6367160663460596  0.19529566451343977 		Uiso   ? 		Ti 		2.08890
Ti 1.0  		0.9049481011262773 		0.1388752576307783  0.19825468973334037 		Uiso   ? 		Ti 		2.08893
Ti 1.0  		0.907663758479328 		0.639415055451958  0.1981260364629099 		Uiso   ? 		Ti 		2.08881
Ti 1.0  		0.18676332773490859 		0.20438708411031506  0.27351685293516004 		Uiso   ? 		Ti 		2.08890
Ti 1.0  		0.18936510295192635 		0.7063990578074395  0.2709437875265508 		Uiso   ? 		Ti 		2.08881
Ti 1.0  		0.6900956049155481 		0.20512317204828737  0.27364550620559047 		Uiso   ? 		Ti 		2.08893
Ti 1.0  		0.6845722889929158 		0.7032093434095594  0.27441742582817324 		Uiso   ? 		Ti 		2.08890
Ti 1.0  		0.3290149392937225 		0.06305820001962902  0.3402879002885693 		Uiso   ? 		Ti 		2.08876
Ti 1.0  		0.3315357017201394 		0.5670330748846796  0.3411884731815825 		Uiso   ? 		Ti 		2.08881
Ti 1.0  		0.8297797391607118 		0.0603592109137305  0.3420890460745957 		Uiso   ? 		Ti 		2.08890
Ti 1.0  		0.8303792924133152 		0.5626165472568457  0.3418317395337348 		Uiso   ? 		Ti 		2.08881
Ti 1.0  		0.18916791920436682 		0.2767690646775935  0.128653270430461 		Uiso   ? 		Ti 		2.08890
Ti 1.0  		0.18819023083721478 		0.7792717636666995  0.12903923024175235 		Uiso   ? 		Ti 		2.08876
Ti 1.0  		0.6886272298379063 		0.27995877907547356  0.1295538433234742 		Uiso   ? 		Ti 		2.08893
Ti 1.0  		0.6899934098432674 		0.7777995877907548  0.12878192370089142 		Uiso   ? 		Ti 		2.08875
Ti 1.0  		0.18475609017657468 		0.28069486701344587  0.2742887725577428 		Uiso   ? 		Ti 		2.08893
Ti 1.0  		0.18787265615170015 		0.7824614780645796  0.2705578277152595 		Uiso   ? 		Ti 		2.08875
Ti 1.0  		0.6851199814214892 		0.2767690646775935  0.2742887725577428 		Uiso   ? 		Ti 		2.08893
Ti 1.0  		0.6836034305736451 		0.7807439395426441  0.27544665199161694 		Uiso   ? 		Ti 		2.08876
Ti 1.0  		0.264209819382123 		0.277259789969575  0.12942519005304376 		Uiso   ? 		Ti 		2.07817
Ti 1.0  		0.2623821703256528 		0.7797624889586809  0.12968249659390466 		Uiso   ? 		Ti 		2.07818
Ti 1.0  		0.7636603323928145 		0.2787319658455197  0.13148364237993113 		Uiso   ? 		Ti 		2.07817
Ti 1.0  		0.765101048711888 		0.7792717636666995  0.13174094892079205 		Uiso   ? 		Ti 		2.07818
Ti 1.0  		0.26493062383567173 		0.28167631759740897  0.2740314660168819 		Uiso   ? 		Ti 		2.07817
Ti 1.0  		0.2635760985690293 		0.7817253901266071  0.272101666960425 		Uiso   ? 		Ti 		2.07818
Ti 1.0  		0.7649112017042075 		0.27995877907547356  0.2749320389098951 		Uiso   ? 		Ti 		2.08893
Ti 1.0  		0.7606868985381365 		0.7768181372067917  0.27570395853247787 		Uiso   ? 		Ti 		2.07817
Ti 1.0  		0.4038786795275504 		0.13544018058690746  0.3426036591563176 		Uiso   ? 		Ti 		2.08880
Ti 1.0  		0.40477405688904333 		0.6421140445578566  0.3420890460745957 		Uiso   ? 		Ti 		2.07818
Ti 1.0  		0.9071452180173256 		0.1351948179409167  0.3432469255084699 		Uiso   ? 		Ti 		2.07817
Ti 1.0  		0.9066494510628489 		0.6369614289920503  0.3399019404772779 		Uiso   ? 		Ti 		2.07818
Ti 1.0  		0.18640176493515453 		0.19898910589851804  0.19851199627420127 		Uiso   ? 		Ti 		2.08876
Ti 1.0  		0.18900586129813166 		0.7073805083914025  0.19799738319247945 		Uiso   ? 		Ti 		2.07817
Ti 1.0  		0.688264206155183 		0.20316027088036118  0.19889795608549268 		Uiso   ? 		Ti 		2.07819
Ti 1.0  		0.684874589578694 		0.7029639807635687  0.19889795608549268 		Uiso   ? 		Ti 		2.08890
Ti 1.0  		0.1883164976320797 		0.20536853469427815  0.3409311666407216 		Uiso   ? 		Ti 		2.07934
Ti 1.0  		0.18622589381215202 		0.7039454313475317  0.33694291525737735 		Uiso   ? 		Ti 		2.07935
Ti 1.0  		0.6898983888429548 		0.20217882029639808  0.34080251337029116 		Uiso   ? 		Ti 		2.07934
Ti 1.0  		0.6868286680979397 		0.7051722445774856  0.3422176993450262 		Uiso   ? 		Ti 		2.07935
Ti 1.0  		0.18607917465572044 		0.2782412405535381  0.19761142338118806 		Uiso   ? 		Ti 		2.07934
Ti 1.0  		0.18978506770266593 		0.7824614780645796  0.19671085048817483 		Uiso   ? 		Ti 		2.07935
Ti 1.0  		0.6848746219037276 		0.2762783393856119  0.19864064954463176 		Uiso   ? 		Ti 		2.07934
Ti 1.0  		0.6814938029500863 		0.7777995877907548  0.1974827701107576 		Uiso   ? 		Ti 		2.07935
Ti 1.0  		0.18964336414015387 		0.28069486701344587  0.3419603928041653 		Uiso   ? 		Ti 		2.07934
Ti 1.0  		0.18447928987131618 		0.7777995877907548  0.3382294479616819 		Uiso   ? 		Ti 		2.07935
Ti 1.0  		0.6875231120079784 		0.2777505152615566  0.3419603928041653 		Uiso   ? 		Ti 		2.07934
Ti 1.0  		0.6863000641230648 		0.7797624889586809  0.3432469255084699 		Uiso   ? 		Ti 		2.07935
Ti 1.0  		0.2633927280382371 		0.2777505152615566  0.19851199627420127 		Uiso   ? 		Ti 		2.08794
Ti 1.0  		0.26427051015403424 		0.7809893021886348  0.1965821972177444 		Uiso   ? 		Ti 		2.06631
Ti 1.0  		0.7633580318070363 		0.27897732849151047  0.19954122243764497 		Uiso   ? 		Ti 		2.06632
Ti 1.0  		0.7614229770914217 		0.7782903130827364  0.20031314206022774 		Uiso   ? 		Ti 		2.06624
Ti 1.0  		0.26249462390375033 		0.28020414172146435  0.34234635261545665 		Uiso   ? 		Ti 		2.06623
Ti 1.0  		0.2600207067074437 		0.7809893021886348  0.3395159806659865 		Uiso   ? 		Ti 		2.08794
Ti 1.0  		0.76275343063548 		0.27946805378349204  0.34273231242674806 		Uiso   ? 		Ti 		2.08794
Ti 1.0  		0.7616442648865991 		0.7800078516046717  0.34298961896760893 		Uiso   ? 		Ti 		2.08794
Ti 1.0  		0.3128036158757533 		0.027235253704975957  0.16030197495635437 		Uiso   ? 		Ti 		2.07129
Ti 1.0  		0.31219164563928437 		0.5240946118362941  0.16223177401281128 		Uiso   ? 		Ti 		2.08794
Ti 1.0  		0.8119911741229872 		0.024781627245068213  0.16429022633969867 		Uiso   ? 		Ti 		2.07130
Ti 1.0  		0.8134318904420608 		0.525321425066248  0.16441887961012913 		Uiso   ? 		Ti 		2.06626
Ti 1.0  		0.3127707465303211 		0.02674452841299441  0.3063234368949276 		Uiso   ? 		Ti 		2.07130
Ti 1.0  		0.3127328292659358 		0.5290018647561096  0.30683804997664943 		Uiso   ? 		Ti 		2.07130
Ti 1.0  		0.8113449059831507 		0.023064088723132793  0.3083818892218149 		Uiso   ? 		Ti 		2.07129
Ti 1.0  		0.8110769033007401 		0.5218863480223771  0.30812458268095405 		Uiso   ? 		Ti 		2.07129
Ti 1.0  		0.44215648482435915 		0.08195112376091865  0.16184581420151992 		Uiso   ? 		Ti 		2.07288
Ti 1.0  		0.44089176997116525 		0.5817548336441261  0.16184581420151992 		Uiso   ? 		Ti 		2.07288
Ti 1.0  		0.9407000960777161 		0.08415938757483563  0.16531945250314234 		Uiso   ? 		Ti 		2.07288
Ti 1.0  		0.941617224015834 		0.5832270095200707  0.1660913721257251 		Uiso   ? 		Ti 		2.07289
Ti 1.0  		0.4429166351002286 		0.08219648640690942  0.30606613035406666 		Uiso   ? 		Ti 		2.07288
Ti 1.0  		0.44274076397722606 		0.587152811855923  0.3076099695992322 		Uiso   ? 		Ti 		2.08794
Ti 1.0  		0.9421787296611749 		0.0824418490529002  0.3047795976497621 		Uiso   ? 		Ti 		2.06627
Ti 1.0  		0.9421889558419583 		0.5822455589361076  0.3036217182158879 		Uiso   ? 		Ti 		2.07288
Ti 1.0  		0.38583277594026644 		0.1562960054961233  0.16171716093108943 		Uiso   ? 		Ti 		2.08366
Ti 1.0  		0.38377504146577085 		0.6553636274413583  0.1614598543902285 		Uiso   ? 		Ti 		2.08326
Ti 1.0  		0.8823565699835131 		0.15531455491216017  0.16441887961012913 		Uiso   ? 		Ti 		2.08289
Ti 1.0  		0.8866823383017512 		0.6560997153793307  0.16441887961012913 		Uiso   ? 		Ti 		2.08337
Ti 1.0  		0.38620081521690897 		0.1570320934340956  0.3095397686556891 		Uiso   ? 		Ti 		2.08397
Ti 1.0  		0.38660547354287855 		0.6627245068210816  0.30812458268095405 		Uiso   ? 		Ti 		2.08144
Ti 1.0  		0.8876776219145992 		0.1570320934340956  0.3095397686556891 		Uiso   ? 		Ti 		2.08383
Ti 1.0  		0.8840426458203483 		0.6563450780253214  0.30670939670621894 		Uiso   ? 		Ti 		2.08184
Ti 1.0  		0.4053317805054559 		0.06354892531161056  0.19581027759516162 		Uiso   ? 		Ti 		2.06719
Ti 1.0  		0.40396845761596534 		0.5618804593188733  0.19581027759516162 		Uiso   ? 		Ti 		2.06099
Ti 1.0  		0.9011523653408495 		0.06158602414368437  0.19889795608549268 		Uiso   ? 		Ti 		2.06062
Ti 1.0  		0.9065493821435833 		0.5640887231327903  0.19889795608549268 		Uiso   ? 		Ti 		2.06589
Ti 1.0  		0.14724846634347427 		0.18230444597114537  0.1641615730692682 		Uiso   ? 		Ti 		2.06240
Ti 1.0  		0.1478415431191891 		0.6892236725880853  0.1648048394214205 		Uiso   ? 		Ti 		2.06438
Ti 1.0  		0.6504427896654965 		0.1857395230150162  0.16377561325797682 		Uiso   ? 		Ti 		2.05620
Ti 1.0  		0.6460235915727919 		0.6860339581902052  0.16403291979883775 		Uiso   ? 		Ti 		2.05958
Ti 1.0  		0.33005331843278585 		0.0642850132495829  0.12710943118529544 		Uiso   ? 		Ti 		2.06106
Ti 1.0  		0.3278641065765615 		0.5613897340268917  0.1276240442670173 		Uiso   ? 		Ti 		2.06172
Ti 1.0  		0.8272715240610375 		0.06256747472764747  0.13174094892079205 		Uiso   ? 		Ti 		2.05991
Ti 1.0  		0.8304779004496117 		0.5640887231327903  0.13071172275734835 		Uiso   ? 		Ti 		2.08446
Ti 1.0  		0.14792112735185445 		0.18917460005888706  0.3072240097879408 		Uiso   ? 		Ti 		2.06607
Ti 1.0  		0.14756331425599517 		0.6882422220041222  0.30349306494545747 		Uiso   ? 		Ti 		2.06510
Ti 1.0  		0.6517506000449058 		0.18623024830699775  0.30748131632880177 		Uiso   ? 		Ti 		2.06183
Ti 1.0  		0.6477651799197082 		0.6882422220041222  0.30773862286966264 		Uiso   ? 		Ti 		2.06222
Ti 1.0  		0.2100716216592815 		0.3160270880361174  0.1626177338241027 		Uiso   ? 		Ti 		2.08881
Ti 1.0  		0.2084323910525566 		0.8197566002551773  0.1628750403649636 		Uiso   ? 		Ti 		2.08890
Ti 1.0  		0.7087948537395357 		0.3177446265580528  0.16467618615099006 		Uiso   ? 		Ti 		2.08893
Ti 1.0  		0.7071292302642671 		0.8163215232113064  0.16326100017625497 		Uiso   ? 		Ti 		2.08881
Ti 1.0  		0.20987672673264776 		0.31946216507998826  0.30876784903310633 		Uiso   ? 		Ti 		2.08890
Ti 1.0  		0.20778612291272008 		0.8180390617332418  0.3047795976497621 		Uiso   ? 		Ti 		2.08881
Ti 1.0  		0.7091452977704825 		0.3150456374521543  0.3086391957626759 		Uiso   ? 		Ti 		2.08893
Ti 1.0  		0.7083231585076435 		0.8182844243792325  0.30915380884439775 		Uiso   ? 		Ti 		2.08890
Ti 1.0  		0.40197128357050405 		0.0593777603297674  0.3402879002885693 		Uiso   ? 		Ti 		2.08876
Ti 1.0  		0.4053267325865027 		0.5662969869467073  0.3409311666407216 		Uiso   ? 		Ti 		2.08881
Ti 1.0  		0.904935521474501 		0.0593777603297674  0.33977328720684746 		Uiso   ? 		Ti 		2.08890
Ti 1.0  		0.905241571764174 		0.5635979978408088  0.3392586741251256 		Uiso   ? 		Ti 		2.08881
Ti 1.0  		0.28149557269353753 		0.25615860241436844  0.1635183067171159 		Uiso   ? 		Ti 		2.08890
Ti 1.0  		0.2787522242568849 		0.7576798508195113  0.1626177338241027 		Uiso   ? 		Ti 		2.08876
Ti 1.0  		0.7807095238093151 		0.25885759152026694  0.16506214596228141 		Uiso   ? 		Ti 		2.08893
Ti 1.0  		0.7790110309886144 		0.756943762881539  0.1662200253961556 		Uiso   ? 		Ti 		2.08875
Ti 1.0  		0.27895448824843105 		0.25787614093630384  0.30889650230353677 		Uiso   ? 		Ti 		2.08893
Ti 1.0  		0.2797665316733639 		0.760133477279419  0.30683804997664943 		Uiso   ? 		Ti 		2.08875
Ti 1.0  		0.7821071446021732 		0.2591029541662578  0.3083818892218149 		Uiso   ? 		Ti 		2.08893
Ti 1.0  		0.7779814494723989 		0.7574344881735205  0.30915380884439775 		Uiso   ? 		Ti 		2.08876
Ti 1.0  		0.3304870964002928 		0.06600255177151831  0.27261628004214683 		Uiso   ? 		Ti 		2.07817
Ti 1.0  		0.32980291099607106 		0.5665423495926981  0.2723589735012859 		Uiso   ? 		Ti 		2.07818
Ti 1.0  		0.8300338963013214 		0.06256747472764747  0.27351685293516004 		Uiso   ? 		Ti 		2.07817
Ti 1.0  		0.8277877433770806 		0.5604082834429287  0.2732595463942991 		Uiso   ? 		Ti 		2.07818
Ti 1.0  		0.2817136790797652 		0.316517813328099  0.1635183067171159 		Uiso   ? 		Ti 		2.07817
Ti 1.0  		0.27881478153879946 		0.8173029737952695  0.16326100017625497 		Uiso   ? 		Ti 		2.07818
Ti 1.0  		0.7805924602643325 		0.3189714397880067  0.16493349269185098 		Uiso   ? 		Ti 		2.08893
Ti 1.0  		0.7799892876507115 		0.8175483364412602  0.1662200253961556 		Uiso   ? 		Ti 		2.07817
Ti 1.0  		0.28083964666786276 		0.3177446265580528  0.3094111153852586 		Uiso   ? 		Ti 		2.08880
Ti 1.0  		0.2790930104019934 		0.8182844243792325  0.3059374770836362 		Uiso   ? 		Ti 		2.07818
Ti 1.0  		0.7810415123315757 		0.3177446265580528  0.30851054249224547 		Uiso   ? 		Ti 		2.07817
Ti 1.0  		0.7772750588555962 		0.8150947099813525  0.3083818892218149 		Uiso   ? 		Ti 		2.07818
Ti 1.0  		0.15024238488475253 		0.2571400529983316  0.16171716093108943 		Uiso   ? 		Ti 		2.08876
Ti 1.0  		0.15015632417519864 		0.7618510158013545  0.16338965344668543 		Uiso   ? 		Ti 		2.07817
Ti 1.0  		0.6510247799974376 		0.25787614093630384  0.16326100017625497 		Uiso   ? 		Ti 		2.07819
Ti 1.0  		0.649089725281823 		0.7571891255275297  0.16107389457893714 		Uiso   ? 		Ti 		2.08890
Ti 1.0  		0.15181315002761941 		0.2615565806261655  0.3096684219261196 		Uiso   ? 		Ti 		2.07934
Ti 1.0  		0.14802262482905543 		0.760133477279419  0.30426498456804024 		Uiso   ? 		Ti 		2.07935
Ti 1.0  		0.6496183615817317 		0.25591323976837765  0.30889650230353677 		Uiso   ? 		Ti 		2.07934
Ti 1.0  		0.6491313922501032 		0.7593973893414467  0.30992572846698047 		Uiso   ? 		Ti 		2.07935
Ti 1.0  		0.20961549249517097 		0.18549416036902544  0.16403291979883775 		Uiso   ? 		Ti 		2.07934
Ti 1.0  		0.20589950361031922 		0.6867700461281775  0.16326100017625497 		Uiso   ? 		Ti 		2.07935
Ti 1.0  		0.7108886066433795 		0.18721169889096087  0.16441887961012913 		Uiso   ? 		Ti 		2.07934
Ti 1.0  		0.7056106502385089 		0.6857885955442143  0.16467618615099006 		Uiso   ? 		Ti 		2.07935
Ti 1.0  		0.20775354553533318 		0.18941996270487782  0.30786727614009307 		Uiso   ? 		Ti 		2.07934
Ti 1.0  		0.20743739940775394 		0.6906958484640299  0.30503690419062296 		Uiso   ? 		Ti 		2.07935
Ti 1.0  		0.7118941164370107 		0.18794778682893318  0.3079959294105236 		Uiso   ? 		Ti 		2.07934
Ti 1.0  		0.7069272582407662 		0.6879968593581314  0.30876784903310633 		Uiso   ? 		Ti 		2.07935
Ti 1.0  		0.44327733763699234 		0.15261556580626168  0.15978736187463252 		Uiso   ? 		Ti 		2.08794
Ti 1.0  		0.44149783202569076 		0.6526646383354598  0.1614598543902285 		Uiso   ? 		Ti 		2.06631
Ti 1.0  		0.9417880795449171 		0.15433310432819708  0.1624890805536722 		Uiso   ? 		Ti 		2.06632
Ti 1.0  		0.944258377380206 		0.6543821768573952  0.16403291979883775 		Uiso   ? 		Ti 		2.06624
Ti 1.0  		0.44386666470881236 		0.15506919226616941  0.30979707519655003 		Uiso   ? 		Ti 		2.06623
Ti 1.0  		0.44365792424037764 		0.6595347924232016  0.30889650230353677 		Uiso   ? 		Ti 		2.08794
Ti 1.0  		0.9449754321298599 		0.15433310432819708  0.30992572846698047 		Uiso   ? 		Ti 		2.08794
Ti 1.0  		0.9439648744172757 		0.6563450780253214  0.3063234368949276 		Uiso   ? 		Ti 		2.08794
Ti 1.0  		0.3825726075675919 		0.02355481401511434  0.16184581420151992 		Uiso   ? 		Ti 		2.07129
Ti 1.0  		0.38370222567803935 		0.5226224359603494  0.16184581420151992 		Uiso   ? 		Ti 		2.08794
Ti 1.0  		0.8827416038858726 		0.023064088723132793  0.16531945250314234 		Uiso   ? 		Ti 		2.07130
Ti 1.0  		0.8843378693092592 		0.5243399744822849  0.16493349269185098 		Uiso   ? 		Ti 		2.06626
Ti 1.0  		0.3819351370506033 		0.02355481401511434  0.30503690419062296 		Uiso   ? 		Ti 		2.07130
Ti 1.0  		0.3825763572714867 		0.5280204141721465  0.3076099695992322 		Uiso   ? 		Ti 		2.07130
Ti 1.0  		0.8826101265041439 		0.021101187555206596  0.3046509443793316 		Uiso   ? 		Ti 		2.07129
Ti 1.0  		0.8818361306864735 		0.5218863480223771  0.3054228640019144 		Uiso   ? 		Ti 		2.07129
Ti 1.0  		0.3136175258106894 		0.08538620080478948  0.1614598543902285 		Uiso   ? 		Ti 		2.07288
Ti 1.0  		0.3134064641962953 		0.5834723721660615  0.16274638709453312 		Uiso   ? 		Ti 		2.07288
Ti 1.0  		0.8109912805432542 		0.08440475022082639  0.1641615730692682 		Uiso   ? 		Ti 		2.07288
Ti 1.0  		0.8158647089650324 		0.5854352733339877  0.16441887961012913 		Uiso   ? 		Ti 		2.07289
Ti 1.0  		0.3155716043299353 		0.08759446461870646  0.3065807434357885 		Uiso   ? 		Ti 		2.07288
Ti 1.0  		0.31367821658260076 		0.5891157130238492  0.30683804997664943 		Uiso   ? 		Ti 		2.08794
Ti 1.0  		0.816638704782703 		0.08465011286681716  0.30812458268095405 		Uiso   ? 		Ti 		2.06627
Ti 1.0  		0.8107473495834279 		0.5820001962901168  0.30748131632880177 		Uiso   ? 		Ti 		2.07288
Ti 1.0  		0.3180024750089482 		0.05250760624202572  0.05647878571897237 		Uiso   ? 		Ti 		2.08366
Ti 1.0  		0.3185932306387036 		0.5530474040632055  0.05416302685122407 		Uiso   ? 		Ti 		2.08326
Ti 1.0  		0.8212143935766663 		0.0593777603297674  0.0573793586119856 		Uiso   ? 		Ti 		2.08289
Ti 1.0  		0.8228828741678056 		0.5569732063990579  0.0573793586119856 		Uiso   ? 		Ti 		2.08337
Ti 1.0  		0.39159127420879897 		0.12488958680930416  0.9876711570946489 		Uiso   ? 		Ti 		2.08397
Ti 1.0  		0.39397823810752775 		0.6205221317106684  0.9874138505537879 		Uiso   ? 		Ti 		2.08144
Ti 1.0  		0.8958850730688301 		0.1177740700755717  0.9883144234468013 		Uiso   ? 		Ti 		2.08383
Ti 1.0  		0.8974179209473117 		0.6244479340465208  0.991016142125841 		Uiso   ? 		Ti 		2.08184
Ti 1.0  		0.1809145320919377 		0.21223868878201985  0.9877998103650794 		Uiso   ? 		Ti 		2.06719
Ti 1.0  		0.16874243746715464 		0.6983020904897439  0.9911447953962713 		Uiso   ? 		Ti 		2.06099
Ti 1.0  		0.6806715010193365 		0.20242418294238887  0.9896009561511059 		Uiso   ? 		Ti 		2.06062
Ti 1.0  		0.6837616741259183 		0.6990381784277163  0.9898582626919668 		Uiso   ? 		Ti 		2.06589
Ti 1.0  		0.17435054820931625 		0.2760329767396212  0.9925599813710064 		Uiso   ? 		Ti 		2.06240
Ti 1.0  		0.1678851400379577 		0.7679850819511238  0.9925599813710064 		Uiso   ? 		Ti 		2.06438
Ti 1.0  		0.6790628509371179 		0.2735793502797134  0.9894723028806753 		Uiso   ? 		Ti 		2.05620
Ti 1.0  		0.674207553730947 		0.7657768181372069  0.9896009561511059 		Uiso   ? 		Ti 		2.05958
Ti 1.0  		0.2469675672239583 		0.28314849347335364  0.9901155692328276 		Uiso   ? 		Ti 		2.06106
Ti 1.0  		0.23693564842220702 		0.7662675434291885  0.988829036528523 		Uiso   ? 		Ti 		2.06172
Ti 1.0  		0.7507377777030338 		0.2745608008636765  0.9898582626919668 		Uiso   ? 		Ti 		2.05991
Ti 1.0  		0.7486383762602583 		0.7714201589949947  0.989343649610245 		Uiso   ? 		Ti 		2.08446
Ti 1.0  		0.17660962176230038 		0.1955540288546472  0.05480629320337638 		Uiso   ? 		Ti 		2.06607
Ti 1.0  		0.1779845993905095 		0.6951123760918638  0.05686474553026375 		Uiso   ? 		Ti 		2.06510
Ti 1.0  		0.6784961347049132 		0.1984983806065365  0.056736092259833296 		Uiso   ? 		Ti 		2.06183
Ti 1.0  		0.6752116026416091 		0.6951123760918638  0.05725070534155514 		Uiso   ? 		Ti 		2.06222
Ti 1.0  		0.17509310323948993 		0.27284326234174117  0.058151278234568365 		Uiso   ? 		Ti 		2.08881
Ti 1.0  		0.17497185203854443 		0.7706840710570223  0.05879454458672067 		Uiso   ? 		Ti 		2.08890
Ti 1.0  		0.6775842173536593 		0.2752968888016489  0.057122052071124675 		Uiso   ? 		Ti 		2.08893
Ti 1.0  		0.6761968227415844 		0.7748552360388655  0.05789397169370744 		Uiso   ? 		Ti 		2.08881
Ti 1.0  		0.2548097872084958 		0.2733339876337227  0.05622147917811145 		Uiso   ? 		Ti 		2.08890
Ti 1.0  		0.25101046438708385 		0.7701933457650407  0.05493494647380684 		Uiso   ? 		Ti 		2.08881
Ti 1.0  		0.7560829013567043 		0.2750515261556581  0.057122052071124675 		Uiso   ? 		Ti 		2.08893
Ti 1.0  		0.7563713564006815 		0.7758366866228286  0.05750801188241606 		Uiso   ? 		Ti 		2.08890
Ti 1.0  		0.30334432148815005 		0.017666110511335754  0.022900282136622055 		Uiso   ? 		Ti 		2.08876
Ti 1.0  		0.30039495935605637 		0.5145254686426539  0.02097048308016514 		Uiso   ? 		Ti 		2.08881
Ti 1.0  		0.8017893247052104 		0.01840219844930808  0.02483008119307897 		Uiso   ? 		Ti 		2.08890
Ti 1.0  		0.805714184401374 		0.5179605456865248  0.023414895218343897 		Uiso   ? 		Ti 		2.08881
Ti 1.0  		0.3952109438782798 		0.055206595347924235  0.05596417263725052 		Uiso   ? 		Ti 		2.08890
Ti 1.0  		0.39448509150577793 		0.553538129355187  0.05532090628509822 		Uiso   ? 		Ti 		2.08876
Ti 1.0  		0.8947512673024199 		0.05643340857787811  0.05866589131629021 		Uiso   ? 		Ti 		2.08893
Ti 1.0  		0.8980233823818584 		0.5589361075669841  0.05879454458672067 		Uiso   ? 		Ti 		2.08875
Ti 1.0  		0.43202037409744676 		0.07655314554912161  0.02199970924360883 		Uiso   ? 		Ti 		2.08893
Ti 1.0  		0.4278442143765444 		0.570958877220532  0.023157588677482976 		Uiso   ? 		Ti 		2.08875
Ti 1.0  		0.9300140041013042 		0.07213661792128767  0.02483008119307897 		Uiso   ? 		Ti 		2.08893
Ti 1.0  		0.933474537630488 		0.5758661301403475  0.02457277465221805 		Uiso   ? 		Ti 		2.08876
Ti 1.0  		0.3211833511170027 		0.05716949651585043  0.989343649610245 		Uiso   ? 		Ti 		2.07817
Ti 1.0  		0.3224509230860673 		0.553538129355187  0.9866419309312052 		Uiso   ? 		Ti 		2.07818
Ti 1.0  		0.8230916146362405 		0.05250760624202572  0.9898582626919668 		Uiso   ? 		Ti 		2.07817
Ti 1.0  		0.8246156648918741 		0.5574639316910394  0.9898582626919668 		Uiso   ? 		Ti 		2.07818
Ti 1.0  		0.37448514172428177 		0.1455000490725292  0.020455869998443295 		Uiso   ? 		Ti 		2.07817
Ti 1.0  		0.3740615899375581 		0.6435862204338013  0.018011457860264538 		Uiso   ? 		Ti 		2.07818
Ti 1.0  		0.8747351508331633 		0.14304642261262146  0.01698223169682085 		Uiso   ? 		Ti 		2.08893
Ti 1.0  		0.8764388219156944 		0.6475120227696536  0.02238566905490021 		Uiso   ? 		Ti 		2.07817
Ti 1.0  		0.1408825587964363 		0.1840219844930808  0.020198563457582374 		Uiso   ? 		Ti 		2.08880
Ti 1.0  		0.13689481752527927 		0.679654529394445  0.024958734463509432 		Uiso   ? 		Ti 		2.07818
Ti 1.0  		0.6429070255976663 		0.18426734713907156  0.023286241947913438 		Uiso   ? 		Ti 		2.07817
Ti 1.0  		0.6428667871873217 		0.6801452546864265  0.021871055973178368 		Uiso   ? 		Ti 		2.07818
Ti 1.0  		0.19443483817438556 		0.30940229659436647  0.02611661389738358 		Uiso   ? 		Ti 		2.08876
Ti 1.0  		0.19150954776487616 		0.8050348414957308  0.026888533519966343 		Uiso   ? 		Ti 		2.07817
Ti 1.0  		0.699287415906764 		0.31062910982432035  0.02380085502963528 		Uiso   ? 		Ti 		2.07819
Ti 1.0  		0.697442171604598 		0.8096967317695555  0.023157588677482976 		Uiso   ? 		Ti 		2.08890
Ti 1.0  		0.26653145021702174 		0.25640396506035923  0.020841829809734678 		Uiso   ? 		Ti 		2.07934
Ti 1.0  		0.26213400270094206 		0.7490921582098342  0.01981260364629099 		Uiso   ? 		Ti 		2.07935
Ti 1.0  		0.7704025898783533 		0.2556678771223869  0.02264297559576113 		Uiso   ? 		Ti 		2.07934
Ti 1.0  		0.7699549663690454 		0.7549808617136128  0.023286241947913438 		Uiso   ? 		Ti 		2.07935
Ti 1.0  		0.2634788700817463 		0.31234664834625575  0.024444121381787587 		Uiso   ? 		Ti 		2.07934
Ti 1.0  		0.26218776236000874 		0.806997742663657  0.020841829809734678 		Uiso   ? 		Ti 		2.07935
Ti 1.0  		0.7720993298480399 		0.31430954951418194  0.023414895218343897 		Uiso   ? 		Ti 		2.07934
Ti 1.0  		0.7683000070266279 		0.8111689076455001  0.022900282136622055 		Uiso   ? 		Ti 		2.07935
Ti 1.0  		0.13812812391600993 		0.25076062420257145  0.02624526716781404 		Uiso   ? 		Ti 		2.07934
Ti 1.0  		0.13566948081943966 		0.7486014329178526  0.027917759683410034 		Uiso   ? 		Ti 		2.07935
Ti 1.0  		0.643504290029344 		0.25345961330846994  0.023286241947913438 		Uiso   ? 		Ti 		2.07934
Ti 1.0  		0.6392711892404253 		0.7486014329178526  0.02457277465221805 		Uiso   ? 		Ti 		2.07935
Ti 1.0  		0.1977072452218694 		0.18377662184709  0.017754151319403617 		Uiso   ? 		Ti 		2.08794
Ti 1.0  		0.19336026229691763 		0.6803906173324173  0.021742402702747906 		Uiso   ? 		Ti 		2.06631
Ti 1.0  		0.7013418229882871 		0.18426734713907156  0.023028935407052514 		Uiso   ? 		Ti 		2.06632
Ti 1.0  		0.7019566503406267 		0.6835803317302974  0.02457277465221805 		Uiso   ? 		Ti 		2.06624
Ti 1.0  		0.4315880570129088 		0.14623613701050153  0.020584523268873757 		Uiso   ? 		Ti 		2.06623
Ti 1.0  		0.42935717818840446 		0.6411325939738934  0.02122778962102606 		Uiso   ? 		Ti 		2.08794
Ti 1.0  		0.9327033009108449 		0.14083815879870448  0.020069910187151912 		Uiso   ? 		Ti 		2.08794
Ti 1.0  		0.9337366321309553 		0.6448130336637551  0.024186814840926663 		Uiso   ? 		Ti 		2.08794
Ti 1.0  		0.3738669869789697 		0.018892923741289626  0.022771628866191593 		Uiso   ? 		Ti 		2.07129
Ti 1.0  		0.3714324156049837 		0.515506919226617  0.022900282136622055 		Uiso   ? 		Ti 		2.08794
Ti 1.0  		0.8714773036064484 		0.01668465992737266  0.02740314660168819 		Uiso   ? 		Ti 		2.07130
Ti 1.0  		0.875321150512011 		0.5182059083325156  0.02611661389738358 		Uiso   ? 		Ti 		2.06626
Ti 1.0  		0.39603181725109415 		0.13249582883501818  0.05454898666251545 		Uiso   ? 		Ti 		2.07130
Ti 1.0  		0.3911371742226025 		0.6288644616743548  0.053648413769502225 		Uiso   ? 		Ti 		2.07130
Ti 1.0  		0.8973706700901671 		0.1351948179409167  0.05351976049907176 		Uiso   ? 		Ti 		2.07129
Ti 1.0  		0.8969471183034434 		0.6332809893021887  0.05725070534155514 		Uiso   ? 		Ti 		2.07129
Ti 1.0  		0.38993155891547376 		0.05569732063990579  0.9889576897989536 		Uiso   ? 		Ti 		2.07288
Ti 1.0  		0.3925967516773965 		0.5523113161252331  0.989343649610245 		Uiso   ? 		Ti 		2.07288
Ti 1.0  		0.8901551751558116 		0.04809107861419178  0.9917880617484236 		Uiso   ? 		Ti 		2.07288
Ti 1.0  		0.891065826617041 		0.5518205908332516  0.9923026748301456 		Uiso   ? 		Ti 		2.07289
Ti 1.0  		0.3012643818010736 		0.07385415644322309  0.024186814840926663 		Uiso   ? 		Ti 		2.07288
Ti 1.0  		0.3028518496016123 		0.5734125036804398  0.021099136350595602 		Uiso   ? 		Ti 		2.08794
Ti 1.0  		0.8046383259499932 		0.07679850819511239  0.02264297559576113 		Uiso   ? 		Ti 		2.06627
Ti 1.0  		0.8059146955419059 		0.5748846795563843  0.023286241947913438 		Uiso   ? 		Ti 		2.07288
C 1.0  		0.5577839432669883 		0.9358131318088135  0.9338940900547162 		Uiso   ? 		C 		0.52977
C 1.0  		0.0007003687758702637 		0.39748748650505455  0.5371274040471745 		Uiso   ? 		C 		0.52977
C 1.0  		0.6097738328139962 		0.18132299538718227  0.5808695159935313 		Uiso   ? 		C 		0.52977
C 1.0  		0.43543118963950384 		0.3987142997350084  0.6257695073737621 		Uiso   ? 		C 		0.52977
C 1.0  		0.32399443509740017 		0.6178231426047699  0.6706694987539931 		Uiso   ? 		C 		0.52977
C 1.0  		0.5860748241232981 		0.9949455294925901  0.9355665825703122 		Uiso   ? 		C 		0.52977
C 1.0  		0.03031433411132589 		0.4541662577289234  0.5372560573176051 		Uiso   ? 		C 		0.52977
C 1.0  		0.6388160663233275 		0.23898321719501425  0.5851150739177365 		Uiso   ? 		C 		0.52977
C 1.0  		0.46167818156311924 		0.45588379625085884  0.6284712260528018 		Uiso   ? 		C 		0.52977
C 1.0  		0.352946858193283 		0.6757287270585927  0.6722133379991586 		Uiso   ? 		C 		0.52977
C 1.0  		0.6444975288231322 		0.9392482088526843  0.9327362106208421 		Uiso   ? 		C 		0.52977
C 1.0  		0.0858760585345795 		0.396996761213073  0.5339110722864131 		Uiso   ? 		C 		0.52977
C 1.0  		0.6964938948470286 		0.1800961821572284  0.5848577673768757 		Uiso   ? 		C 		0.53905
C 1.0  		0.520926775229687 		0.4014132888409069  0.6242256681285967 		Uiso   ? 		C 		0.53905
C 1.0  		0.4106992230306962 		0.6195406811267054  0.6746577501373373 		Uiso   ? 		C 		0.53905
C 1.0  		0.5874816158410048 		0.908087152811856  0.9304204517530938 		Uiso   ? 		C 		0.53905
C 1.0  		0.028273139626591448 		0.369761507508097  0.532238579770817 		Uiso   ? 		C 		0.53905
C 1.0  		0.6400432372141369 		0.15261556580626168  0.5857583402698888 		Uiso   ? 		C 		0.53905
C 1.0  		0.46433584259221866 		0.3702522328000785  0.6244829746694576 		Uiso   ? 		C 		0.53905
C 1.0  		0.3553022186366043 		0.5903425262538032  0.6707981520244236 		Uiso   ? 		C 		0.53905
C 1.0  		0.5305402391725895 		0.8796250858769261  0.9308064115643853 		Uiso   ? 		C 		0.53905
C 1.0  		0.9706642458011068 		0.33958190205123173  0.5349402984498568 		Uiso   ? 		C 		0.53905
C 1.0  		0.5838291414761589 		0.12390813622534107  0.5829279683204187 		Uiso   ? 		C 		0.53905
C 1.0  		0.406323217439308 		0.34007262734321325  0.6266700802667755 		Uiso   ? 		C 		0.53905
C 1.0  		0.29674193338015364 		0.5599175581509471  0.6731139108921719 		Uiso   ? 		C 		0.56068
C 1.0  		0.7253155225151167 		0.9117675925017177  0.9347946629477295 		Uiso   ? 		C 		0.56068
C 1.0  		0.16734032036640045 		0.3712336833840416  0.5380279769401879 		Uiso   ? 		C 		0.56068
C 1.0  		0.7740324043946621 		0.1464814996564923  0.5864016066220411 		Uiso   ? 		C 		0.56068
C 1.0  		0.603208128405394 		0.375159485719894  0.624868934480749 		Uiso   ? 		C 		0.56068
C 1.0  		0.7264797628220107 		0.8545980959858672  0.8864210332658761 		Uiso   ? 		C 		0.56068
C 1.0  		0.6987570590808746 		0.9419471979585828  0.9345373564068686 		Uiso   ? 		C 		0.56068
C 1.0  		0.13924396113472365 		0.39748748650505455  0.5340397255568435 		Uiso   ? 		C 		0.56068
C 1.0  		0.7483896403406025 		0.17764255569732065  0.5856296869994583 		Uiso   ? 		C 		0.56068
C 1.0  		0.573133618931887 		0.4004318382569438  0.6185649242296564 		Uiso   ? 		C 		0.56068
C 1.0  		0.6955640902820335 		0.8815879870448523  0.8871929528884589 		Uiso   ? 		C 		0.56068
C 1.0  		0.47541217905785393 		0.8258906664049466  0.9323502508095507 		Uiso   ? 		C 		0.56068
C 1.0  		0.9175976698647615 		0.2912454607910492  0.5398291227262142 		Uiso   ? 		C 		0.53708
C 1.0  		0.6908138285801257 		0.40460300323878695  0.5853723804585974 		Uiso   ? 		C 		0.53708
C 1.0  		0.5196738120903128 		0.6190499558347238  0.6295004522162455 		Uiso   ? 		C 		0.53708
C 1.0  		0.24109260603042182 		0.5110903915987831  0.6741431370556156 		Uiso   ? 		C 		0.53708
C 1.0  		0.4472527755832728 		0.7687211698890961  0.9310637181052461 		Uiso   ? 		C 		0.53708
C 1.0  		0.061999555169999165 		0.565560899008735  0.5404723890783665 		Uiso   ? 		C 		0.53708
C 1.0  		0.6659973267948006 		0.34816959466090885  0.5831852748612797 		Uiso   ? 		C 		0.53708
C 1.0  		0.4882701149627723 		0.5626165472568457  0.6310442914614112 		Uiso   ? 		C 		0.53708
C 1.0  		0.20832415745545538 		0.45490234566689575  0.6767162024642247 		Uiso   ? 		C 		0.53708
C 1.0  		0.9156737339179541 		0.7986554126999706  0.9358238891111732 		Uiso   ? 		C 		0.53708
C 1.0  		0.8600276203022057 		0.2645009323780548  0.5418875750531016 		Uiso   ? 		C 		0.53708
C 1.0  		0.6358987455987094 		0.3746687604279125  0.5852437271881671 		Uiso   ? 		C 		0.53708
C 1.0  		0.464049043424155 		0.5927961527137109  0.6257695073737621 		Uiso   ? 		C 		0.54127
C 1.0  		0.18526414481478226 		0.4865541269997056  0.6691256595088275 		Uiso   ? 		C 		0.54127
C 1.0  		0.09221291109014738 		0.04588281480027481  0.9349233162181599 		Uiso   ? 		C 		0.54127
C 1.0  		0.03490260255706565 		0.5083914024928845  0.5397004694557839 		Uiso   ? 		C 		0.54127
C 1.0  		0.6393582238719584 		0.29149082343703997  0.5848577673768757 		Uiso   ? 		C 		0.54127
C 1.0  		0.4568006791443673 		0.5052016880950045  0.6336173568700203 		Uiso   ? 		C 		0.54127
C 1.0  		0.35254924463914694 		0.7284816959466092  0.6696402725905494 		Uiso   ? 		C 		0.54127
C 1.0  		0.8863620691682768 		0.741731278830111  0.9353092760294512 		Uiso   ? 		C 		0.54127
C 1.0  		0.0028258711191442853 		0.5339091176759251  0.5380279769401879 		Uiso   ? 		C 		0.54127
C 1.0  		0.6088258647083602 		0.3162724506821082  0.5815127823456836 		Uiso   ? 		C 		0.54127
C 1.0  		0.4311907844357399 		0.5368534694278144  0.6306583316501198 		Uiso   ? 		C 		0.54127
C 1.0  		0.32142108192684027 		0.7554715870055944  0.6696402725905494 		Uiso   ? 		C 		0.54127
C 1.0  		0.860955867009131 		0.7716655216409855  0.9412273264692526 		Uiso   ? 		C 		0.55594
C 1.0  		0.8042144331863026 		0.23702031602708803  0.543946027379989 		Uiso   ? 		C 		0.55594
C 1.0  		0.5772639240285465 		0.3415448032191579  0.5843431542951537 		Uiso   ? 		C 		0.55594
C 1.0  		0.40618549089866873 		0.5680145254686427  0.6264127737259145 		Uiso   ? 		C 		0.55594
C 1.0  		0.13037545470190953 		0.46177249975463736  0.6626929959873045 		Uiso   ? 		C 		0.55594
C 1.0  		0.6160747972830929 		0.9669741878496418  0.9332508237025638 		Uiso   ? 		C 		0.55594
C 1.0  		0.059341666822921635 		0.4259495534399843  0.5375133638584659 		Uiso   ? 		C 		0.55594
C 1.0  		0.667230000240519 		0.20953969967612132  0.583571234672571 		Uiso   ? 		C 		0.55594
C 1.0  		0.490705514274715 		0.42766709196191977  0.6252548942920404 		Uiso   ? 		C 		0.55594
C 1.0  		0.38167189031910054 		0.6477573854156444  0.6736285239738936 		Uiso   ? 		C 		0.55594
C 1.0  		0.8114042172060485 		0.9947001668465995  0.9332508237025638 		Uiso   ? 		C 		0.55594
C 1.0  		0.7497403189282492 		0.4531848071449603  0.5385425900219096 		Uiso   ? 		C 		0.55594
C 1.0  		0.8615844585693162 		0.23064088723132792  0.5851150739177365 		Uiso   ? 		C 		0.57796
C 1.0  		0.6857349547578516 		0.46201786240062814  0.6251262410216099 		Uiso   ? 		C 		0.57796
C 1.0  		0.808320975212311 		0.943910099126509  0.8905379379196509 		Uiso   ? 		C 		0.57796
C 1.0  		0.7814310102167981 		0.9390028462066936  0.9356952358407427 		Uiso   ? 		C 		0.57796
C 1.0  		0.719758314316151 		0.3957699479831191  0.5368700975063136 		Uiso   ? 		C 		0.57796
C 1.0  		0.8323056631650709 		0.1742074786534498  0.5892319785715113 		Uiso   ? 		C 		0.57796
C 1.0  		0.6586380021449181 		0.40484836588477774  0.6283425727823715 		Uiso   ? 		C 		0.57796
C 1.0  		0.7836512249084512 		0.8864952399646678  0.8873216061588894 		Uiso   ? 		C 		0.57796
C 1.0  		0.7507217246742626 		0.8818333496908431  0.9335081302434249 		Uiso   ? 		C 		0.57796
C 1.0  		0.6905364599799222 		0.33860045146726864  0.5403437358079362 		Uiso   ? 		C 		0.57796
C 1.0  		0.8017847960722806 		0.11826479536755324  0.5884600589489285 		Uiso   ? 		C 		0.57796
C 1.0  		0.6311489385327578 		0.34816959466090885  0.6285998793232324 		Uiso   ? 		C 		0.57796
C 1.0  		0.7592925728132172 		0.8305525566787713  0.8853918071024324 		Uiso   ? 		C 		0.56383
C 1.0  		0.7538670369889247 		0.9684463637255865  0.9344087031364381 		Uiso   ? 		C 		0.56383
C 1.0  		0.1963825538757319 		0.42889390519187365  0.5364841376950222 		Uiso   ? 		C 		0.56383
C 1.0  		0.8048972390415107 		0.20438708411031506  0.5856296869994583 		Uiso   ? 		C 		0.56383
C 1.0  		0.6296916822239231 		0.43110216900579057  0.6233250952355834 		Uiso   ? 		C 		0.56383
C 1.0  		0.7520564148832052 		0.9112768672097361  0.8891227519449157 		Uiso   ? 		C 		0.56383
C 1.0  		0.8075638926864024 		0.7724016095789578  0.9358238891111732 		Uiso   ? 		C 		0.56383
C 1.0  		0.7506011710683966 		0.23603886544312494  0.5492208114676379 		Uiso   ? 		C 		0.56383
C 1.0  		0.5247219103951362 		0.3422808911571303  0.5836998879430014 		Uiso   ? 		C 		0.56383
C 1.0  		0.8518255257188612 		0.565560899008735  0.6276993064302191 		Uiso   ? 		C 		0.56383
C 1.0  		0.5708212726808258 		0.44680537834920014  0.6698975791314103 		Uiso   ? 		C 		0.56383
C 1.0  		0.7518733853293801 		0.7451663558739818  0.9293912255896501 		Uiso   ? 		C 		0.56383
C 1.0  		0.8593320888111986 		0.531700853862008  0.5402150825375056 		Uiso   ? 		C 		0.57139
C 1.0  		0.46734675575921414 		0.312101285700265  0.5853723804585974 		Uiso   ? 		C 		0.57139
C 1.0  		0.7952040448819201 		0.5402885464716852  0.6270560400780668 		Uiso   ? 		C 		0.57139
C 1.0  		0.6908956693086834 		0.7643046422612623  0.6737571772443242 		Uiso   ? 		C 		0.57139
C 1.0  		0.7810054292521602 		0.802581215035823  0.9350519694885904 		Uiso   ? 		C 		0.57139
C 1.0  		0.7189822893205665 		0.26204730591814707  0.5463904395181678 		Uiso   ? 		C 		0.57139
C 1.0  		0.494778878303358 		0.3695161448621062  0.5806122094526703 		Uiso   ? 		C 		0.57139
C 1.0  		0.6608433160388355 		0.266463833545981  0.6304010251092589 		Uiso   ? 		C 		0.57139
C 1.0  		0.7892804532822253 		0.7468838943959173  0.8823041286121014 		Uiso   ? 		C 		0.57139
C 1.0  		0.8654317788518741 		0.04539208950829326  0.9277187330740542 		Uiso   ? 		C 		0.57139
C 1.0  		0.8028661570785705 		0.5071645892629307  0.5403437358079362 		Uiso   ? 		C 		0.57139
C 1.0  		0.4109201698489066 		0.2833938561193444  0.5870448729741934 		Uiso   ? 		C 		0.57139
C 1.0  		0.7377895444236773 		0.5142801059966632  0.6251262410216099 		Uiso   ? 		C 		0.56061
C 1.0  		0.8611028458085741 		0.9959269800765532  0.89028063137879 		Uiso   ? 		C 		0.56061
C 1.0  		0.7250695623773763 		0.7748552360388655  0.9288766125079282 		Uiso   ? 		C 		0.56061
C 1.0  		0.8344254033104241 		0.5643340857787811  0.5409870021600884 		Uiso   ? 		C 		0.56061
C 1.0  		0.9400832562313504 		0.3430169790951026  0.5839571944838623 		Uiso   ? 		C 		0.56061
C 1.0  		0.7690464900697527 		0.5716949651585044  0.6260268139146231 		Uiso   ? 		C 		0.56061
C 1.0  		0.7335418024800344 		0.722102267150849  0.8855204603728629 		Uiso   ? 		C 		0.56061
C 1.0  		0.7520679069540132 		0.8305525566787713  0.9320929442686898 		Uiso   ? 		C 		0.56061
C 1.0  		0.6870523093641103 		0.28658357051722444  0.545618519895585 		Uiso   ? 		C 		0.56061
C 1.0  		0.9680959082244663 		0.40116792619491615  0.5804835561822399 		Uiso   ? 		C 		0.56061
C 1.0  		0.6321840226038824 		0.29541662577289235  0.6273133466189278 		Uiso   ? 		C 		0.56061
C 1.0  		0.7635150094692847 		0.7777995877907548  0.8825614351529624 		Uiso   ? 		C 		0.56061
C 1.0  		0.23652717574227533 		0.6094808126410836  0.7086222135309791 		Uiso   ? 		C 		0.55624
C 1.0  		0.41120742365292645 		0.5113357542447738  0.753264898370349 		Uiso   ? 		C 		0.55624
C 1.0  		0.007414285548906607 		0.274070075571695  0.7988081561027321 		Uiso   ? 		C 		0.55624
C 1.0  		0.827846973266023 		0.9927372656786733  0.8482110119480293 		Uiso   ? 		C 		0.55624
C 1.0  		0.5531780795755528 		0.8781529100009816  0.8906665911900814 		Uiso   ? 		C 		0.55624
C 1.0  		0.26225937690778295 		0.6668956718029247  0.7087508668014095 		Uiso   ? 		C 		0.55624
C 1.0  		0.4413121080239055 		0.5689959760526058  0.75635257686068 		Uiso   ? 		C 		0.55624
C 1.0  		0.035418139919174724 		0.3305034841495731  0.8002233420774673 		Uiso   ? 		C 		0.55624
C 1.0  		0.8582992445520781 		0.051526155658062615  0.8476963988663074 		Uiso   ? 		C 		0.55624
C 1.0  		0.5834623847734292 		0.935322406516832  0.8862923799954457 		Uiso   ? 		C 		0.55624
C 1.0  		0.3238958270611036 		0.6163509667288253  0.7174992891906808 		Uiso   ? 		C 		0.55624
C 1.0  		0.4970534532740565 		0.5113357542447738  0.7554520039676669 		Uiso   ? 		C 		0.55624
C 1.0  		0.09529540647988329 		0.2743154382176858  0.799580075725315 		Uiso   ? 		C 		0.57680
C 1.0  		0.9167511992363265 		0.9971537933065071  0.8465385194324333 		Uiso   ? 		C 		0.57680
C 1.0  		0.6411818802654102 		0.8786436352929631  0.8879648725110417 		Uiso   ? 		C 		0.57680
C 1.0  		0.26890620776597496 		0.5837177348120522  0.7123531583734625 		Uiso   ? 		C 		0.57680
C 1.0  		0.44011207660564133 		0.482873687309844  0.7528789385590577 		Uiso   ? 		C 		0.57680
C 1.0  		0.03856651998379765 		0.24585337128275594  0.8009952617000501 		Uiso   ? 		C 		0.57680
C 1.0  		0.8593431752549723 		0.9664834625576603  0.8474390923254465 		Uiso   ? 		C 		0.57680
C 1.0  		0.5819031117013702 		0.8501815683580332  0.8900233248379291 		Uiso   ? 		C 		0.57680
C 1.0  		0.2128388635094622 		0.5540288546471686  0.7105520125874359 		Uiso   ? 		C 		0.57680
C 1.0  		0.3825332294202376 		0.45441162037491417  0.7542941245337927 		Uiso   ? 		C 		0.57680
C 1.0  		0.9816038942981494 		0.2173913043478261  0.8034396738382288 		Uiso   ? 		C 		0.57680
C 1.0  		0.8017226611012884 		0.9358131318088135  0.8451233334576982 		Uiso   ? 		C 		0.57680
C 1.0  		0.5247492448606257 		0.8217195014231035  0.8896373650266377 		Uiso   ? 		C 		0.54566
C 1.0  		0.40369071571376114 		0.5846991853960154  0.7126104649143233 		Uiso   ? 		C 		0.54566
C 1.0  		0.5772909175170688 		0.48311904995583477  0.7548087376155146 		Uiso   ? 		C 		0.54566
C 1.0  		0.1739468314802924 		0.24462655805280206  0.7970070103167058 		Uiso   ? 		C 		0.54566
C 1.0  		0.9946994150288826 		0.9664834625576603  0.8505267708157775 		Uiso   ? 		C 		0.54566
C 1.0  		0.49246578544829545 		0.5935322406516832  0.6719560314582976 		Uiso   ? 		C 		0.54566
C 1.0  		0.3770424418660704 		0.6151241534988714  0.7167273695680981 		Uiso   ? 		C 		0.54566
C 1.0  		0.5499065651160929 		0.5120718421827462  0.75635257686068 		Uiso   ? 		C 		0.54566
C 1.0  		0.1445843288374863 		0.2725978996957503  0.7966210505054144 		Uiso   ? 		C 		0.54566
C 1.0  		0.9686316706301639 		0.9976445185984886  0.8478250521367379 		Uiso   ? 		C 		0.54566
C 1.0  		0.46435415211688214 		0.6227303955245853  0.6670672071819401 		Uiso   ? 		C 		0.54566
C 1.0  		0.15996718249975067 		0.5022573363431152  0.7141543041594889 		Uiso   ? 		C 		0.54566
C 1.0  		0.33022448261380233 		0.3999411129649622  0.7505631796913093 		Uiso   ? 		C 		0.57590
C 1.0  		0.09365265348724153 		0.4988222592992443  0.8035683271086593 		Uiso   ? 		C 		0.57590
C 1.0  		0.9132718692214896 		0.21714594170183532  0.8424216147786585 		Uiso   ? 		C 		0.57590
C 1.0  		0.4731677789846275 		0.7670036313671607  0.8871929528884589 		Uiso   ? 		C 		0.57590
C 1.0  		0.13333687719975623 		0.4472961036411817  0.7097800929648532 		Uiso   ? 		C 		0.57590
C 1.0  		0.4694988782890097 		0.6789184414564727  0.7581537226467066 		Uiso   ? 		C 		0.57590
C 1.0  		0.0669566094963828 		0.44287957601334776  0.7997087289957455 		Uiso   ? 		C 		0.57590
C 1.0  		0.88337967502284 		0.15948571989400334  0.8431935344012413 		Uiso   ? 		C 		0.57590
C 1.0  		0.443709362753485 		0.7110609480812642  0.8843625809389887 		Uiso   ? 		C 		0.57590
C 1.0  		0.6088269522893286 		0.47649425851408383  0.7133823845369062 		Uiso   ? 		C 		0.57590
C 1.0  		0.27360300177686114 		0.3746687604279125  0.749919913339157 		Uiso   ? 		C 		0.57590
C 1.0  		0.0375941068535767 		0.47085091765629605  0.7986795028323018 		Uiso   ? 		C 		0.57590
C 1.0  		0.8569438913474787 		0.18991068799685937  0.8446087203759763 		Uiso   ? 		C 		0.52268
C 1.0  		0.4159986380441465 		0.7414859161841202  0.8833333547755451 		Uiso   ? 		C 		0.52268
C 1.0  		0.774462595326185 		0.7223476297968398  0.7099087462352837 		Uiso   ? 		C 		0.52268
C 1.0  		0.43939419391803064 		0.6212582196486407  0.7595689086214417 		Uiso   ? 		C 		0.52268
C 1.0  		0.03600196443608558 		0.3852193542055158  0.7994514224548845 		Uiso   ? 		C 		0.52268
C 1.0  		0.8560461605149928 		0.10354303660810679  0.8449946801872676 		Uiso   ? 		C 		0.52268
C 1.0  		0.5824601700477368 		0.9885661006968299  0.8893800584857768 		Uiso   ? 		C 		0.52268
C 1.0  		0.5791801176084408 		0.41932476199823343  0.7154408368637935 		Uiso   ? 		C 		0.52268
C 1.0  		0.41246769120714594 		0.6507017371675337  0.7571244964832629 		Uiso   ? 		C 		0.52268
C 1.0  		0.008617612035109606 		0.41417214643242717  0.7975216233984276 		Uiso   ? 		C 		0.52268
C 1.0  		0.8263484879409763 		0.1312690156050643  0.8438368007533936 		Uiso   ? 		C 		0.52268
C 1.0  		0.5584728032881624 		0.02134655020119737  0.8866783398067372 		Uiso   ? 		C 		0.52268
C 1.0  		0.5528998830373925 		0.4504858180390618  0.7127391181847539 		Uiso   ? 		C 		0.52842
C 1.0  		0.21615563197318619 		0.34816959466090885  0.7522356722069053 		Uiso   ? 		C 		0.52842
C 1.0  		0.9803291805821504 		0.442634213367357  0.7990654626435931 		Uiso   ? 		C 		0.52842
C 1.0  		0.7994307828529393 		0.16243007164589265  0.8430648811308108 		Uiso   ? 		C 		0.52842
C 1.0  		0.3590660589985792 		0.7147413877711257  0.8834620080459755 		Uiso   ? 		C 		0.52842
C 1.0  		0.29272599738051686 		0.6411325939738934  0.7126104649143233 		Uiso   ? 		C 		0.52842
C 1.0  		0.468483970252552 		0.5400431838256944  0.7533935516407795 		Uiso   ? 		C 		0.52842
C 1.0  		0.06517275356120772 		0.3020414172146433  0.8003519953478978 		Uiso   ? 		C 		0.52842
C 1.0  		0.8865094859197877 		0.023800176661105114  0.8467958259732942 		Uiso   ? 		C 		0.52842
C 1.0  		0.610813867828973 		0.9058788889979391  0.8856491136432935 		Uiso   ? 		C 		0.52842
C 1.0  		0.49021318837219985 		0.6693492982628326  0.7123531583734625 		Uiso   ? 		C 		0.52842
C 1.0  		0.1671187729282114 		0.570958877220532  0.7522356722069053 		Uiso   ? 		C 		0.52842
C 1.0  		0.2616632323821075 		0.33123957208754545  0.8003519953478978 		Uiso   ? 		C 		0.52769
C 1.0  		0.08329064499826652 		0.052262243596034944  0.8449946801872676 		Uiso   ? 		C 		0.52769
C 1.0  		0.5790868661430306 		0.679654529394445  0.6731139108921719 		Uiso   ? 		C 		0.52769
C 1.0  		0.4605334843458797 		0.6116890764550005  0.7102947060465751 		Uiso   ? 		C 		0.52769
C 1.0  		0.13929453938484065 		0.5140347433506723  0.7567385366719714 		Uiso   ? 		C 		0.52769
C 1.0  		0.23322560004433238 		0.2730886249877319  0.7977789299392885 		Uiso   ? 		C 		0.52769
C 1.0  		0.05208702105918983 		0.9949455294925901  0.8488542783001816 		Uiso   ? 		C 		0.52769
C 1.0  		0.5503798025649096 		0.6222396702326038  0.6731139108921719 		Uiso   ? 		C 		0.52769
C 1.0  		0.4312787606642188 		0.5540288546471686  0.7109379723987274 		Uiso   ? 		C 		0.52769
C 1.0  		0.10937827346360676 		0.45760133477279424  0.7572531497536933 		Uiso   ? 		C 		0.52769
C 1.0  		0.20133118388126836 		0.21567376582589068  0.7976502766688581 		Uiso   ? 		C 		0.52769
C 1.0  		0.022832297377528954 		0.9372853076847582  0.8493688913819034 		Uiso   ? 		C 		0.52769
C 1.0  		0.5192936801228836 		0.5626165472568457  0.6720846847287282 		Uiso   ? 		C 		0.53913
C 1.0  		0.43467823011949064 		0.6428501324958289  0.7150548770525021 		Uiso   ? 		C 		0.53913
C 1.0  		0.6074613405789124 		0.5417607223476298  0.753264898370349 		Uiso   ? 		C 		0.53913
C 1.0  		0.20268676440384567 		0.30253214250662486  0.7977789299392885 		Uiso   ? 		C 		0.53913
C 1.0  		0.024347046365436935 		0.02404553930709589  0.8438368007533936 		Uiso   ? 		C 		0.53913
C 1.0  		0.5225463980966902 		0.652419275689469  0.6700262324018408 		Uiso   ? 		C 		0.53913
C 1.0  		0.5006777652354562 		0.45441162037491417  0.7132537312664756 		Uiso   ? 		C 		0.53913
C 1.0  		0.1615368600616491 		0.3464520561389734  0.7575104562945543 		Uiso   ? 		C 		0.53913
C 1.0  		0.927125624709167 		0.4445971145352832  0.7994514224548845 		Uiso   ? 		C 		0.53913
C 1.0  		0.25083162248922153 		0.16635587398174503  0.8433221876716717 		Uiso   ? 		C 		0.53913
C 1.0  		0.8178258645811455 		0.7194032780449505  0.8857777669137238 		Uiso   ? 		C 		0.53913
C 1.0  		0.4433507540447026 		0.4217783884581412  0.7149262237820717 		Uiso   ? 		C 		0.53913
C 1.0  		0.2781257588497145 		0.6531553636274414  0.7553233506972364 		Uiso   ? 		C 		0.51228
C 1.0  		0.8709356006937735 		0.4146628717244087  0.8017671813226328 		Uiso   ? 		C 		0.51228
C 1.0  		0.1920676446832893 		0.13764844440082444  0.8447373736464068 		Uiso   ? 		C 		0.51228
C 1.0  		0.9175330510798991 		0.023800176661105114  0.8900233248379291 		Uiso   ? 		C 		0.51228
C 1.0  		0.46646733445139155 		0.4782117970360193  0.7131250779960452 		Uiso   ? 		C 		0.51228
C 1.0  		0.1315609586244387 		0.3731965845519678  0.7584110291875674 		Uiso   ? 		C 		0.51228
C 1.0  		0.898155233065588 		0.4720777308862499  0.7997087289957455 		Uiso   ? 		C 		0.51228
C 1.0  		0.05161977312627203 		0.8563156345078027  0.8438368007533936 		Uiso   ? 		C 		0.51228
C 1.0  		0.5474918287998067 		0.4791932476199824  0.669254312779258 		Uiso   ? 		C 		0.51228
C 1.0  		0.5451856993826224 		0.7223476297968398  0.7122245051030319 		Uiso   ? 		C 		0.51228
C 1.0  		0.22127419259474804 		0.6244479340465208  0.7533935516407795 		Uiso   ? 		C 		0.51228
C 1.0  		0.8128660344728464 		0.3852193542055158  0.8029250607565069 		Uiso   ? 		C 		0.51228
C 1.0  		0.1349137778425446 		0.1091863774658946  0.8442227605646849 		Uiso   ? 		C 		0.52906
C 1.0  		0.632898318255509 		0.7311806850525077  0.674014483785185 		Uiso   ? 		C 		0.52906
C 1.0  		0.4114119764653984 		0.4445971145352832  0.7075929873675354 		Uiso   ? 		C 		0.52906
C 1.0  		0.24885306662035708 		0.6808813426243989  0.7573818030241237 		Uiso   ? 		C 		0.52906
C 1.0  		0.34568677452470936 		0.4436156639513201  0.8002233420774673 		Uiso   ? 		C 		0.52906
C 1.0  		0.16367778248868214 		0.1658651486897635  0.8426789213195194 		Uiso   ? 		C 		0.52906
C 1.0  		0.4890389492025006 		0.45195799391500646  0.6701548856722712 		Uiso   ? 		C 		0.52906
C 1.0  		0.43465123663096816 		0.501275885759152  0.7081076004492571 		Uiso   ? 		C 		0.52906
C 1.0  		0.10186328605042219 		0.4009225635489253  0.7587969889988588 		Uiso   ? 		C 		0.52906
C 1.0  		0.37399292948075563 		0.4998037098832074  0.797907583209719 		Uiso   ? 		C 		0.52906
C 1.0  		0.022739191896141486 		0.8835508882127786  0.8440941072942545 		Uiso   ? 		C 		0.52906
C 1.0  		0.5203857052620247 		0.5091274904308569  0.6705408454835626 		Uiso   ? 		C 		0.52906
C 1.0  		0.7226362892184486 		0.264255569732064  0.930163145212233 		Uiso   ? 		C 		0.56624
C 1.0  		0.16889431820152825 		0.7338796741584062  0.5394431629149229 		Uiso   ? 		C 		0.56624
C 1.0  		0.7714287303426074 		0.5152615565806262  0.5862729533516108 		Uiso   ? 		C 		0.56624
C 1.0  		0.5997739230946866 		0.7299538718225538  0.6271846933484972 		Uiso   ? 		C 		0.56624
C 1.0  		0.48269854193598233 		0.95053489056826  0.6693829660496885 		Uiso   ? 		C 		0.56624
C 1.0  		0.7539261042099562 		0.32216115418588676  0.9323502508095507 		Uiso   ? 		C 		0.56624
C 1.0  		0.19650606157256945 		0.7908038080282658  0.5429168012165453 		Uiso   ? 		C 		0.56624
C 1.0  		0.8017699766085002 		0.5716949651585044  0.5824133552386969 		Uiso   ? 		C 		0.56624
C 1.0  		0.6281458167415973 		0.7871233683384042  0.6287285325936628 		Uiso   ? 		C 		0.56624
C 1.0  		0.5085899115668207 		0.00785160467170478  0.6691256595088275 		Uiso   ? 		C 		0.56624
C 1.0  		0.8068962795969753 		0.2627833938561194  0.9295198788600805 		Uiso   ? 		C 		0.56624
C 1.0  		0.25498570734042 		0.7343703994503877  0.542273534864393 		Uiso   ? 		C 		0.56624
C 1.0  		0.854093883855683 		0.5105996663068015  0.5871735262446239 		Uiso   ? 		C 		0.55390
C 1.0  		0.6862902925782374 		0.7304445971145354  0.6280852662415105 		Uiso   ? 		C 		0.55390
C 1.0  		0.571521755115685 		0.95691431936402  0.6655233679367747 		Uiso   ? 		C 		0.55390
C 1.0  		0.7499549029285602 		0.23432132692118954  0.9284906526966369 		Uiso   ? 		C 		0.55390
C 1.0  		0.1970388208783737 		0.7051722445774856  0.5433027610278367 		Uiso   ? 		C 		0.55390
C 1.0  		0.7983464354306442 		0.48410050053979786  0.5870448729741934 		Uiso   ? 		C 		0.55390
C 1.0  		0.6290466153240442 		0.7022278928255963  0.6285998793232324 		Uiso   ? 		C 		0.55390
C 1.0  		0.5145627832015741 		0.9250171753852194  0.667581820263662 		Uiso   ? 		C 		0.55390
C 1.0  		0.6928098337106633 		0.20757679850819513  0.9287479592374979 		Uiso   ? 		C 		0.55390
C 1.0  		0.14179736558859474 		0.6767101776425557  0.5385425900219096 		Uiso   ? 		C 		0.55390
C 1.0  		0.741177294490163 		0.45858278535675734  0.5860156468107497 		Uiso   ? 		C 		0.55390
C 1.0  		0.5728565913086505 		0.6722936500147219  0.6279566129710801 		Uiso   ? 		C 		0.55390
C 1.0  		0.4560024979451235 		0.8945922072823634  0.6722133379991586 		Uiso   ? 		C 		0.55797
C 1.0  		0.890551181842956 		0.23800176661105116  0.9268181601810409 		Uiso   ? 		C 		0.55797
C 1.0  		0.336016191204734 		0.706889783099421  0.5368700975063136 		Uiso   ? 		C 		0.55797
C 1.0  		0.933398053472817 		0.4779664343900285  0.5804835561822399 		Uiso   ? 		C 		0.55797
C 1.0  		0.7711062537221623 		0.7071351457454118  0.6298864120275369 		Uiso   ? 		C 		0.55797
C 1.0  		0.8931417569572111 		0.1926096771027579  0.8860350734545847 		Uiso   ? 		C 		0.55797
C 1.0  		0.8597822607844439 		0.26401020708607326  0.9300344919418024 		Uiso   ? 		C 		0.55797
C 1.0  		0.3089429370123841 		0.737314751202277  0.5375133638584659 		Uiso   ? 		C 		0.55797
C 1.0  		0.9056456617951985 		0.5061831386789676  0.5853723804585974 		Uiso   ? 		C 		0.55797
C 1.0  		0.7402146529047694 		0.7328982235744431  0.6260268139146231 		Uiso   ? 		C 		0.55797
C 1.0  		0.8669184634541793 		0.22303464520561392  0.8856491136432935 		Uiso   ? 		C 		0.55797
C 1.0  		0.6385493295309417 		0.1572774560800864  0.929648532130511 		Uiso   ? 		C 		0.55797
C 1.0  		0.08763314829921018 		0.6215035822946315  0.5371274040471745 		Uiso   ? 		C 		0.55710
C 1.0  		0.8611479538288155 		0.7380508391402494  0.5815127823456836 		Uiso   ? 		C 		0.55710
C 1.0  		0.6877691534796743 		0.9539699676121308  0.6242256681285967 		Uiso   ? 		C 		0.55710
C 1.0  		0.4039150389338657 		0.8418392383943469  0.6710554585652845 		Uiso   ? 		C 		0.55710
C 1.0  		0.6104227954017928 		0.1005986848562175  0.9315783311869679 		Uiso   ? 		C 		0.55710
C 1.0  		0.2231308643176547 		0.8980272843262342  0.5409870021600884 		Uiso   ? 		C 		0.55710
C 1.0  		0.8296215769423941 		0.6813720679163805  0.5807408627231009 		Uiso   ? 		C 		0.55710
C 1.0  		0.6580084366627534 		0.898272646972225  0.6261554671850535 		Uiso   ? 		C 		0.55710
C 1.0  		0.37818283776835804 		0.7844243792325057  0.6696402725905494 		Uiso   ? 		C 		0.55710
C 1.0  		0.08903166168009226 		0.13004220237511044  0.9302917984826633 		Uiso   ? 		C 		0.55710
C 1.0  		0.029865882664061205 		0.5918147021297478  0.5376420171288965 		Uiso   ? 		C 		0.55710
C 1.0  		0.8026950742315093 		0.7108155854352733  0.5812554758048227 		Uiso   ? 		C 		0.55710
C 1.0  		0.6309023131249714 		0.9282068897830995  0.6233250952355834 		Uiso   ? 		C 		0.55667
C 1.0  		0.3476352045050234 		0.8121503582294632  0.667581820263662 		Uiso   ? 		C 		0.55667
C 1.0  		0.2533706131063466 		0.3835018156835803  0.9292625723192196 		Uiso   ? 		C 		0.55667
C 1.0  		0.19372938915452853 		0.8413485131023654  0.543946027379989 		Uiso   ? 		C 		0.55667
C 1.0  		0.8001543630884036 		0.6237118461085485  0.582156048697836 		Uiso   ? 		C 		0.55667
C 1.0  		0.6277810725328935 		0.8403670625184022  0.6285998793232324 		Uiso   ? 		C 		0.55667
C 1.0  		0.5120587880828963 		0.06281283737363824  0.6674531669932315 		Uiso   ? 		C 		0.55667
C 1.0  		0.06290734951535774 		0.07311806850525077  0.932993517161703 		Uiso   ? 		C 		0.55667
C 1.0  		0.16592005640889357 		0.8703013053292767  0.5426594946756844 		Uiso   ? 		C 		0.55667
C 1.0  		0.7735301609632971 		0.6529100009814507  0.5817700888865446 		Uiso   ? 		C 		0.55667
C 1.0  		0.6006749489951114 		0.8703013053292767  0.6275706531597887 		Uiso   ? 		C 		0.55667
C 1.0  		0.4891959915148163 		0.09740897045833743  0.667839126804523 		Uiso   ? 		C 		0.55667
C 1.0  		0.030764879386571953 		0.09765433310432821  0.9293912255896501 		Uiso   ? 		C 		0.54176
C 1.0  		0.9737115506994511 		0.561144371380901  0.5393145096444925 		Uiso   ? 		C 		0.54176
C 1.0  		0.7456310178042134 		0.6821081558543527  0.5834425814021406 		Uiso   ? 		C 		0.54176
C 1.0  		0.5727846034588756 		0.9012169987241143  0.6270560400780668 		Uiso   ? 		C 		0.54176
C 1.0  		0.29156786024851067 		0.7824614780645796  0.6719560314582976 		Uiso   ? 		C 		0.54176
C 1.0  		0.7788744566790108 		0.29173618608303076  0.932993517161703 		Uiso   ? 		C 		0.54176
C 1.0  		0.22562320469761393 		0.7623417410933361  0.5433027610278367 		Uiso   ? 		C 		0.54176
C 1.0  		0.8280261394569642 		0.5417607223476298  0.5864016066220411 		Uiso   ? 		C 		0.54176
C 1.0  		0.6566583586950854 		0.7591520266954559  0.6282139195119409 		Uiso   ? 		C 		0.54176
C 1.0  		0.5412106837472643 		0.9834134851310238  0.667839126804523 		Uiso   ? 		C 		0.54176
C 1.0  		0.9744186879202552 		0.3258415938757484  0.9305491050235242 		Uiso   ? 		C 		0.54176
C 1.0  		0.9185629412480479 		0.7878594562763765  0.5304374339847906 		Uiso   ? 		C 		0.54176
C 1.0  		0.01873257280537588 		0.5635979978408088  0.5829279683204187 		Uiso   ? 		C 		0.51749
C 1.0  		0.8552519886626555 		0.7959564235940721  0.6273133466189278 		Uiso   ? 		C 		0.51749
C 1.0  		0.9825164122693822 		0.2770144273235843  0.8889940986744854 		Uiso   ? 		C 		0.51749
C 1.0  		0.9483272451009529 		0.2694081852978703  0.927976039614915 		Uiso   ? 		C 		0.51749
C 1.0  		0.8922918776018482 		0.73191677299048  0.5360981778837309 		Uiso   ? 		C 		0.51749
C 1.0  		0.9910995804171017 		0.506673863970949  0.582156048697836 		Uiso   ? 		C 		0.51749
C 1.0  		0.8291934151887853 		0.7400137403081756  0.6295004522162455 		Uiso   ? 		C 		0.51749
C 1.0  		0.9507775452106313 		0.2203356560997154  0.8851345005615715 		Uiso   ? 		C 		0.51749
C 1.0  		0.9237801745559737 		0.21223868878201985  0.9300344919418024 		Uiso   ? 		C 		0.51749
C 1.0  		0.8654402845066764 		0.6752380017666111  0.5364841376950222 		Uiso   ? 		C 		0.51749
C 1.0  		0.9615754254950946 		0.44974973010108943  0.5782964505849221 		Uiso   ? 		C 		0.51749
C 1.0  		0.8039431354359531 		0.681862793208362  0.6301437185683978 		Uiso   ? 		C 		0.51749
C 1.0  		0.9199784492546471 		0.16341152222985575  0.8843625809389887 		Uiso   ? 		C 		0.54658
C 1.0  		0.9158824743863889 		0.2941898125429385  0.9302917984826633 		Uiso   ? 		C 		0.54658
C 1.0  		0.3665787252658044 		0.7650407301992345  0.5371274040471745 		Uiso   ? 		C 		0.54658
C 1.0  		0.962652777154478 		0.5356266561978604  0.5842145010247234 		Uiso   ? 		C 		0.54658
C 1.0  		0.7971736248188803 		0.7647953675532437  0.6266700802667755 		Uiso   ? 		C 		0.54658
C 1.0  		0.9258051210189924 		0.2519874374325253  0.8877075659701809 		Uiso   ? 		C 		0.54658
C 1.0  		0.979395544979305 		0.10035332221022672  0.9282333461557759 		Uiso   ? 		C 		0.54658
C 1.0  		0.9181442100622994 		0.5579546569830209  0.5408583488896579 		Uiso   ? 		C 		0.54658
C 1.0  		0.694061644619002 		0.6830896064383158  0.5880740991376371 		Uiso   ? 		C 		0.54658
C 1.0  		0.022527188684801636 		0.9073510648738836  0.6267987335372058 		Uiso   ? 		C 		0.54658
C 1.0  		0.7478217718773621 		0.7957110609480813  0.6715700716470063 		Uiso   ? 		C 		0.54658
C 1.0  		0.9216940180350204 		0.07164589262930611  0.9264322003697495 		Uiso   ? 		C 		0.54658
C 1.0  		0.027915326530732143 		0.8688291294533321  0.5345543386385654 		Uiso   ? 		C 		0.51554
C 1.0  		0.6361781757018605 		0.6484934733536166  0.5892319785715113 		Uiso   ? 		C 		0.51554
C 1.0  		0.9655228960308735 		0.8766807341250369  0.6280852662415105 		Uiso   ? 		C 		0.51554
C 1.0  		0.846862773844624 		0.08857591520266955  0.6751723632190593 		Uiso   ? 		C 		0.51554
C 1.0  		0.9509158723712492 		0.12881538914515656  0.9309350648348156 		Uiso   ? 		C 		0.51554
C 1.0  		0.8915047338374564 		0.5900971636078124  0.5400864292670753 		Uiso   ? 		C 		0.51554
C 1.0  		0.6593845665219982 		0.704681519285504  0.5862729533516108 		Uiso   ? 		C 		0.51554
C 1.0  		0.8270327223541196 		0.5967219550495633  0.6295004522162455 		Uiso   ? 		C 		0.51554
C 1.0  		0.9457165262770646 		0.07974285994700167  0.8833333547755451 		Uiso   ? 		C 		0.51554
C 1.0  		0.025204311469600227 		0.3810481892236726  0.9299058386713719 		Uiso   ? 		C 		0.51554
C 1.0  		0.9699559886743008 		0.8413485131023654  0.5312093536073733 		Uiso   ? 		C 		0.51554
C 1.0  		0.578973844269988 		0.6161056040828345  0.5871735262446239 		Uiso   ? 		C 		0.51554
C 1.0  		0.9074861991553784 		0.8477279418981255  0.6243543213990271 		Uiso   ? 		C 		0.53238
C 1.0  		0.03638198274452581 		0.3290313082736284  0.8887367921336244 		Uiso   ? 		C 		0.53238
C 1.0  		0.8940731037391306 		0.10182549808617136  0.9264322003697495 		Uiso   ? 		C 		0.53238
C 1.0  		0.0007193925795014322 		0.8990087349101974  0.5323672330412476 		Uiso   ? 		C 		0.53238
C 1.0  		0.09897943529121483 		0.6735204632446757  0.5781677973144916 		Uiso   ? 		C 		0.53238
C 1.0  		0.9353104326987491 		0.9046520757679851  0.6292431456753846 		Uiso   ? 		C 		0.53238
C 1.0  		0.8904509992647014 		0.05250760624202572  0.888093525781472 		Uiso   ? 		C 		0.53238
C 1.0  		0.9248481279725306 		0.15997644518598492  0.9281046928853456 		Uiso   ? 		C 		0.53238
C 1.0  		0.8637370680601015 		0.6212582196486407  0.5387998965627705 		Uiso   ? 		C 		0.53238
C 1.0  		0.12850359021322177 		0.7304445971145354  0.5798402898300876 		Uiso   ? 		C 		0.53238
C 1.0  		0.8017251282312704 		0.6281283737363824  0.6279566129710801 		Uiso   ? 		C 		0.53238
C 1.0  		0.9177275727045323 		0.1091863774658946  0.8819181688008101 		Uiso   ? 		C 		0.53238
C 1.0  		0.4105000267891107 		0.9480812641083521  0.7108093191282969 		Uiso   ? 		C 		0.58244
C 1.0  		0.577854679658302 		0.8420846010403377  0.756609883401541 		Uiso   ? 		C 		0.58244
C 1.0  		0.1758535944923264 		0.6109529885170283  0.7967497037758448 		Uiso   ? 		C 		0.58244
C 1.0  		0.9912711502251523 		0.3268230444597115  0.8415210418856454 		Uiso   ? 		C 		0.58244
C 1.0  		0.725044922359847 		0.21297477671999215  0.8871929528884589 		Uiso   ? 		C 		0.58244
C 1.0  		0.4402490888673128 		0.005888703503778585  0.7124818116438929 		Uiso   ? 		C 		0.58244
C 1.0  		0.6073459652348767 		0.8985180096182158  0.7596975618918721 		Uiso   ? 		C 		0.58244
C 1.0  		0.20305563161844492 		0.6649327706349986  0.7982935430210104 		Uiso   ? 		C 		0.58244
C 1.0  		0.019607351821279623 		0.38472862891353427  0.8451233334576982 		Uiso   ? 		C 		0.58244
C 1.0  		0.7483170518708488 		0.2701442732358426  0.8857777669137238 		Uiso   ? 		C 		0.58244
C 1.0  		0.49659141592800243 		0.9485719894003338  0.7171133293793894 		Uiso   ? 		C 		0.58244
C 1.0  		0.6593587742734333 		0.8359505348905684  0.7569958432128324 		Uiso   ? 		C 		0.58244
C 1.0  		0.26081679407870606 		0.6104622632250467  0.7949485579898184 		Uiso   ? 		C 		0.56885
C 1.0  		0.07888881483327966 		0.3307488467955639  0.8435794942125326 		Uiso   ? 		C 		0.56885
C 1.0  		0.8137630510263647 		0.22254391991363237  0.8859064201841543 		Uiso   ? 		C 		0.56885
C 1.0  		0.4397069803276038 		0.9193738345274316  0.7132537312664756 		Uiso   ? 		C 		0.56885
C 1.0  		0.60523023443643 		0.8114142702914908  0.755194697426806 		Uiso   ? 		C 		0.56885
C 1.0  		0.20475824744504129 		0.5824909215820984  0.7973929701279971 		Uiso   ? 		C 		0.56885
C 1.0  		0.021759019715119288 		0.3010599666306802  0.843965454023824 		Uiso   ? 		C 		0.56885
C 1.0  		0.7567295427985415 		0.18794778682893318  0.8859064201841543 		Uiso   ? 		C 		0.56885
C 1.0  		0.38161334238409234 		0.8911571302384926  0.7128677714551843 		Uiso   ? 		C 		0.56885
C 1.0  		0.5504313547370059 		0.7863872804004319  0.7513350993138921 		Uiso   ? 		C 		0.56885
C 1.0  		0.14778400143119386 		0.553538129355187  0.7993227691844541 		Uiso   ? 		C 		0.56885
C 1.0  		0.9651797074058501 		0.2703896358818334  0.8395912428291883 		Uiso   ? 		C 		0.56885
C 1.0  		0.6997705708844305 		0.1560506428501325  0.888608138863194 		Uiso   ? 		C 		0.56689
C 1.0  		0.5773020039608425 		0.917901658651487  0.7099087462352837 		Uiso   ? 		C 		0.56689
C 1.0  		0.7440849250039094 		0.8128864461674356  0.7587969889988588 		Uiso   ? 		C 		0.56689
C 1.0  		0.3419764341787895 		0.578565119246246  0.7949485579898184 		Uiso   ? 		C 		0.56689
C 1.0  		0.16081740283208038 		0.3008146039846894  0.8417783484265062 		Uiso   ? 		C 		0.56689
C 1.0  		0.6521754020805087 		0.9269800765531456  0.6665525941002184 		Uiso   ? 		C 		0.56689
C 1.0  		0.5501060700096118 		0.9480812641083521  0.7135110378073366 		Uiso   ? 		C 		0.56689
C 1.0  		0.7137738536354885 		0.8393856119344392  0.7572531497536933 		Uiso   ? 		C 		0.56689
C 1.0  		0.3119107223281304 		0.6055550103052312  0.7970070103167058 		Uiso   ? 		C 		0.56689
C 1.0  		0.1310627891900474 		0.32927667091961926  0.8395912428291883 		Uiso   ? 		C 		0.56689
C 1.0  		0.6247341086115161 		0.9566689567180293  0.6666812473706488 		Uiso   ? 		C 		0.56689
C 1.0  		0.33110312499258987 		0.8381587987044853  0.7145402639707803 		Uiso   ? 		C 		0.56689
C 1.0  		0.4983198240031638 		0.7348611247423693  0.754937390885945 		Uiso   ? 		C 		0.54312
C 1.0  		0.2638816942227462 		0.8354598095985867  0.7990654626435931 		Uiso   ? 		C 		0.54312
C 1.0  		0.0821157405585213 		0.5518205908332516  0.8399772026404797 		Uiso   ? 		C 		0.54312
C 1.0  		0.6471923928376493 		0.10231622337815291  0.8904092846492204 		Uiso   ? 		C 		0.54312
C 1.0  		0.30105538168962725 		0.7797624889586809  0.7150548770525021 		Uiso   ? 		C 		0.54312
C 1.0  		0.6347192635171127 		0.008096967317695556  0.7541654712633623 		Uiso   ? 		C 		0.54312
C 1.0  		0.23580330353876586 		0.7763274119148101  0.7989368093731627 		Uiso   ? 		C 		0.54312
C 1.0  		0.05439011505144711 		0.49636863283933663  0.8440941072942545 		Uiso   ? 		C 		0.54312
C 1.0  		0.6151183558476879 		0.04539208950829326  0.8904092846492204 		Uiso   ? 		C 		0.54312
C 1.0  		0.7719998292237192 		0.8045441162037492  0.7147975705116412 		Uiso   ? 		C 		0.54312
C 1.0  		0.4415099247164773 		0.7083619589753657  0.7571244964832629 		Uiso   ? 		C 		0.54312
C 1.0  		0.20711114075838044 		0.80478947884974  0.7988081561027321 		Uiso   ? 		C 		0.54312
C 1.0  		0.0262215406520174 		0.526302875650211  0.8429362278603802 		Uiso   ? 		C 		0.53968
C 1.0  		0.5914296703128741 		0.07876140936303858  0.8873216061588894 		Uiso   ? 		C 		0.53968
C 1.0  		0.938949223146962 		0.05643340857787811  0.7115812387508796 		Uiso   ? 		C 		0.53968
C 1.0  		0.6085913319913605 		0.9520070664442046  0.7589256422692893 		Uiso   ? 		C 		0.53968
C 1.0  		0.20774250810048123 		0.7206300912749043  0.7999660355366064 		Uiso   ? 		C 		0.53968
C 1.0  		0.023926189026673317 		0.4396898616154677  0.843965454023824 		Uiso   ? 		C 		0.53968
C 1.0  		0.7480749874210258 		0.3236333300618314  0.8847485407502801 		Uiso   ? 		C 		0.53968
C 1.0  		0.7440529159214676 		0.7473746196878988  0.7154408368637935 		Uiso   ? 		C 		0.53968
C 1.0  		0.5778552802782806 		0.9785062322112082  0.7580250693762761 		Uiso   ? 		C 		0.53968
C 1.0  		0.17807770487189692 		0.7488467955638435  0.7957204776124011 		Uiso   ? 		C 		0.53968
C 1.0  		0.9967330777807939 		0.4686426538423791  0.8443514138351154 		Uiso   ? 		C 		0.53968
C 1.0  		0.7204869424705683 		0.3543036608106782  0.8882221790519026 		Uiso   ? 		C 		0.53968
C 1.0  		0.7157287924177249 		0.776572774560801  0.715312183593363 		Uiso   ? 		C 		0.56899
C 1.0  		0.38572960694600644 		0.6813720679163805  0.7572531497536933 		Uiso   ? 		C 		0.56899
C 1.0  		0.14971191439987405 		0.7758366866228286  0.7963637439645536 		Uiso   ? 		C 		0.56899
C 1.0  		0.9711889217630307 		0.501275885759152  0.842292961508228 		Uiso   ? 		C 		0.56899
C 1.0  		0.5361576668236224 		0.05618804593188734  0.8860350734545847 		Uiso   ? 		C 		0.56899
C 1.0  		0.4690843837681457 		0.9772794189812544  0.7141543041594889 		Uiso   ? 		C 		0.56899
C 1.0  		0.6347215200130047 		0.867847678869369  0.761627360948329 		Uiso   ? 		C 		0.56899
C 1.0  		0.23346531102316226 		0.6399057807439397  0.7980362364801495 		Uiso   ? 		C 		0.56899
C 1.0  		0.04928095267271182 		0.3582294631465306  0.8434508409421022 		Uiso   ? 		C 		0.56899
C 1.0  		0.7812525416209364 		0.2463440965747375  0.8861637267250152 		Uiso   ? 		C 		0.56899
C 1.0  		0.6635345930173685 		0.0036804396898616155  0.7114525854804492 		Uiso   ? 		C 		0.56899
C 1.0  		0.3294264150735476 		0.9019530866620866  0.7537795114520709 		Uiso   ? 		C 		0.56899
C 1.0  		0.4258920837012573 		0.6639513200510355  0.7999660355366064 		Uiso   ? 		C 		0.52797
C 1.0  		0.24447241873705006 		0.38865443124938664  0.8403631624517711 		Uiso   ? 		C 		0.52797
C 1.0  		0.7382195726872895 		0.011532044361566397  0.6709268052948539 		Uiso   ? 		C 		0.52797
C 1.0  		0.6356738707675479 		0.9470998135243891  0.70887952007184 		Uiso   ? 		C 		0.52797
C 1.0  		0.3018804103933707 		0.84601040337619  0.7548087376155146 		Uiso   ? 		C 		0.52797
C 1.0  		0.3990404906060855 		0.6072725488271666  0.8009952617000501 		Uiso   ? 		C 		0.52797
C 1.0  		0.2194434267793954 		0.33222102267150855  0.8392052830178969 		Uiso   ? 		C 		0.52797
C 1.0  		0.7090181707126273 		0.9539699676121308  0.6682250866158144 		Uiso   ? 		C 		0.52797
C 1.0  		0.6061168465001087 		0.8896849543625479  0.7092654798831314 		Uiso   ? 		C 		0.52797
C 1.0  		0.2741547848862965 		0.790558445382275  0.760212174973594 		Uiso   ? 		C 		0.52797
C 1.0  		0.3721888975109138 		0.5505937776032978  0.7993227691844541 		Uiso   ? 		C 		0.52797
C 1.0  		0.19225666375301326 		0.2752968888016489  0.8388193232066056 		Uiso   ? 		C 		0.52797
C 1.0  		0.6788806169962158 		0.8958190205123172  0.6677104735340925 		Uiso   ? 		C 		0.53451
C 1.0  		0.6065807993650878 		0.9743350672293651  0.7117098920213102 		Uiso   ? 		C 		0.53451
C 1.0  		0.7706013481678708 		0.8693198547453137  0.754680084345084 		Uiso   ? 		C 		0.53451
C 1.0  		0.36837017758387 		0.6347531651781334  0.7990654626435931 		Uiso   ? 		C 		0.53451
C 1.0  		0.18678616589250188 		0.35700264991657676  0.8392052830178969 		Uiso   ? 		C 		0.53451
C 1.0  		0.6821245373471747 		0.9839042104230052  0.6668099006410793 		Uiso   ? 		C 		0.53451
C 1.0  		0.6601702494034211 		0.7751005986848563  0.7137683443481975 		Uiso   ? 		C 		0.53451
C 1.0  		0.3340616257244985 		0.6808813426243989  0.7569958432128324 		Uiso   ? 		C 		0.53451
C 1.0  		0.09722684183448016 		0.7758366866228286  0.7961064374236925 		Uiso   ? 		C 		0.53451
C 1.0  		0.41054771559832326 		0.49514181960938264  0.8421643082377976 		Uiso   ? 		C 		0.53451
C 1.0  		0.9756026173008263 		0.05324369417999804  0.888093525781472 		Uiso   ? 		C 		0.53451
C 1.0  		0.6016275593926662 		0.7481107076258711  0.7149262237820717 		Uiso   ? 		C 		0.53451
C 1.0  		0.4361572046799165 		0.9789969575031898  0.7580250693762761 		Uiso   ? 		C 		0.54093
C 1.0  		0.04022852409804861 		0.7481107076258711  0.7997087289957455 		Uiso   ? 		C 		0.54093
C 1.0  		0.35480026717328456 		0.4686426538423791  0.8375327905023009 		Uiso   ? 		C 		0.54093
C 1.0  		0.09235951658758991 		0.35896555108450295  0.8900233248379291 		Uiso   ? 		C 		0.54093
C 1.0  		0.6314540149004514 		0.80478947884974  0.7142829574299193 		Uiso   ? 		C 		0.54093
C 1.0  		0.306195351910847 		0.7105702227892826  0.7596975618918721 		Uiso   ? 		C 		0.54093
C 1.0  		0.06702317612520386 		0.8055255667877123  0.7946912514489575 		Uiso   ? 		C 		0.54093
C 1.0  		0.22171447936417715 		0.19481794091667487  0.842550268049089 		Uiso   ? 		C 		0.54093
C 1.0  		0.7159575306117701 		0.8212287761311219  0.669254312779258 		Uiso   ? 		C 		0.54093
C 1.0  		0.7161785097550142 		0.0583963097458043  0.7104233593170055 		Uiso   ? 		C 		0.54093
C 1.0  		0.3797722857378891 		0.9524977917361862  0.7567385366719714 		Uiso   ? 		C 		0.54093
C 1.0  		0.9826765713405804 		0.7171950142310335  0.8000946888070368 		Uiso   ? 		C 		0.54093
C 1.0  		0.29737696909219385 		0.4409166748454216  0.8376614437727314 		Uiso   ? 		C 		0.56775
C 1.0  		0.7897834433175916 		0.06281283737363824  0.6744004435964764 		Uiso   ? 		C 		0.56775
C 1.0  		0.5749792855449753 		0.7785356757287272  0.7093941331535619 		Uiso   ? 		C 		0.56775
C 1.0  		0.4091533085394486 		0.009569143193640202  0.7540368179929318 		Uiso   ? 		C 		0.56775
C 1.0  		0.5053130572203625 		0.7726469722249485  0.799580075725315 		Uiso   ? 		C 		0.56775
C 1.0  		0.32653308473755827 		0.49710472077730883  0.8412637353447843 		Uiso   ? 		C 		0.56775
C 1.0  		0.6588430095933462 		0.7885955442143489  0.6715700716470063 		Uiso   ? 		C 		0.56775
C 1.0  		0.6039557803634424 		0.835214446952596  0.7099087462352837 		Uiso   ? 		C 		0.56775
C 1.0  		0.27506718919854023 		0.7375601138482677  0.7604694815144548 		Uiso   ? 		C 		0.56775
C 1.0  		0.533693748490121 		0.8315340072627343  0.799580075725315 		Uiso   ? 		C 		0.56775
C 1.0  		0.19381533620509345 		0.224016095789577  0.8408777755334929 		Uiso   ? 		C 		0.56775
C 1.0  		0.6838150604829843 		0.8457650407301993  0.6687396996975362 		Uiso   ? 		C 		0.56775
C 1.0  		0.8878882455769254 		0.6011384826773973  0.9274614265331932 		Uiso   ? 		C 		0.51973
C 1.0  		0.33572481439481877 		0.06330356266561979  0.541115655430519 		Uiso   ? 		C 		0.51973
C 1.0  		0.9432590844204516 		0.8504269310040241  0.583571234672571 		Uiso   ? 		C 		0.51973
C 1.0  		0.7655683612948732 		0.06453037589557367  0.6267987335372058 		Uiso   ? 		C 		0.51973
C 1.0  		0.658512887581089 		0.28560211993326134  0.6711841118357149 		Uiso   ? 		C 		0.51973
C 1.0  		0.9138000675693303 		0.6580626165472568  0.9282333461557759 		Uiso   ? 		C 		0.51973
C 1.0  		0.36701462938632634 		0.12120914711944254  0.5408583488896579 		Uiso   ? 		C 		0.51973
C 1.0  		0.9721698405480543 		0.9061242516439298  0.5815127823456836 		Uiso   ? 		C 		0.51973
C 1.0  		0.7939971960098003 		0.12096378447345177  0.6302723718388283 		Uiso   ? 		C 		0.51973
C 1.0  		0.6853644806762607 		0.3422808911571303  0.6749150566781984 		Uiso   ? 		C 		0.51973
C 1.0  		0.9757388183084292 		0.6072725488271666  0.9293912255896501 		Uiso   ? 		C 		0.51973
C 1.0  		0.420311177081708 		0.0603592109137305  0.5399577759966447 		Uiso   ? 		C 		0.51973
C 1.0  		0.029755035952955422 		0.8487093924820887  0.5793256767483658 		Uiso   ? 		C 		0.51336
C 1.0  		0.851537070674884 		0.06477573854156445  0.6253835475624708 		Uiso   ? 		C 		0.51336
C 1.0  		0.7463634603125928 		0.29173618608303076  0.6710554585652845 		Uiso   ? 		C 		0.51336
C 1.0  		0.9207579966361483 		0.5763568554323291  0.9295198788600805 		Uiso   ? 		C 		0.51336
C 1.0  		0.3635012777950216 		0.033860045146726865  0.5409870021600884 		Uiso   ? 		C 		0.51336
C 1.0  		0.9725229790269613 		0.8209834134851312  0.5804835561822399 		Uiso   ? 		C 		0.51336
C 1.0  		0.7957479552815653 		0.036068308960643836  0.6251262410216099 		Uiso   ? 		C 		0.51336
C 1.0  		0.690834978536772 		0.2605751300422024  0.6714414183765759 		Uiso   ? 		C 		0.51336
C 1.0  		0.8635207958588436 		0.5434782608695652  0.9290052657783587 		Uiso   ? 		C 		0.51336
C 1.0  		0.30595529995505005 		0.005888703503778585  0.5395718161853533 		Uiso   ? 		C 		0.51336
C 1.0  		0.9145760925649149 		0.7917852586122289  0.581641435616114 		Uiso   ? 		C 		0.51336
C 1.0  		0.7391417485443604 		0.00785160467170478  0.6253835475624708 		Uiso   ? 		C 		0.51336
C 1.0  		0.6341871048312872 		0.23015016193934637  0.674014483785185 		Uiso   ? 		C 		0.54099
C 1.0  		0.055979936322978874 		0.5756207674943568  0.9299058386713719 		Uiso   ? 		C 		0.54099
C 1.0  		0.5024851245982704 		0.030915693394837573  0.5350689517202872 		Uiso   ? 		C 		0.54099
C 1.0  		0.1074819639503341 		0.8163215232113064  0.5820273954274054 		Uiso   ? 		C 		0.54099
C 1.0  		0.9351766988211283 		0.042938463048385514  0.6300150652979675 		Uiso   ? 		C 		0.54099
C 1.0  		0.057814516492293605 		0.5189419962704879  0.8861637267250152 		Uiso   ? 		C 		0.54099
C 1.0  		0.02763174109665184 		0.6060457355972128  0.9274614265331932 		Uiso   ? 		C 		0.54099
C 1.0  		0.4726647722653731 		0.0583963097458043  0.532753192852539 		Uiso   ? 		C 		0.54099
C 1.0  		0.08263221951757604 		0.848218667190107  0.5813841290752532 		Uiso   ? 		C 		0.54099
C 1.0  		0.9072687580391967 		0.07041907939935224  0.6251262410216099 		Uiso   ? 		C 		0.54099
C 1.0  		0.027347896019559698 		0.5447050740995192  0.8891227519449157 		Uiso   ? 		C 		0.54099
C 1.0  		0.811137512738696 		0.48630876435371484  0.9281046928853456 		Uiso   ? 		C 		0.54099
C 1.0  		0.2512573984468037 		0.9547060555501031  0.5375133638584659 		Uiso   ? 		C 		0.52791
C 1.0  		0.019885726668496164 		0.07164589262930611  0.58331392813171 		Uiso   ? 		C 		0.52791
C 1.0  		0.8565865975376428 		0.2860928452252429  0.6262841204554841 		Uiso   ? 		C 		0.52791
C 1.0  		0.5790349729939672 		0.17764255569732065  0.6747864034077679 		Uiso   ? 		C 		0.52791
C 1.0  		0.7823494363699742 		0.43085680635979984  0.9328648638912727 		Uiso   ? 		C 		0.52791
C 1.0  		0.3913196354814825 		0.23186770046128177  0.5380279769401879 		Uiso   ? 		C 		0.52791
C 1.0  		0.9936174857276479 		0.014476396113455688  0.581898742156975 		Uiso   ? 		C 		0.52791
C 1.0  		0.8246023709611301 		0.22892334870939252  0.6306583316501198 		Uiso   ? 		C 		0.52791
C 1.0  		0.5449258446941593 		0.12047305918147022  0.6716987249174368 		Uiso   ? 		C 		0.52791
C 1.0  		0.2514643047302687 		0.467661203258416  0.9275900798036236 		Uiso   ? 		C 		0.52791
C 1.0  		0.19517478009055456 		0.9279615271371088  0.5385425900219096 		Uiso   ? 		C 		0.52791
C 1.0  		0.9610171659087708 		0.03852193542055158  0.5853723804585974 		Uiso   ? 		C 		0.52791
C 1.0  		0.7986901756667244 		0.2608204926881932  0.6266700802667755 		Uiso   ? 		C 		0.51746
C 1.0  		0.5223324793664254 		0.15433310432819708  0.6686110464271057 		Uiso   ? 		C 		0.51746
C 1.0  		0.41906930038610735 		0.7127784866031995  0.9293912255896501 		Uiso   ? 		C 		0.51746
C 1.0  		0.36546475455709404 		0.1742074786534498  0.5371274040471745 		Uiso   ? 		C 		0.51746
C 1.0  		0.9695815865797587 		0.9578957699479832  0.5790683702075049 		Uiso   ? 		C 		0.51746
C 1.0  		0.7929292425932435 		0.1732260280694867  0.6349038895743249 		Uiso   ? 		C 		0.51746
C 1.0  		0.6847215076043629 		0.3945431347531652  0.6744004435964764 		Uiso   ? 		C 		0.51746
C 1.0  		0.22211097301231114 		0.4085288055746394  0.9256602807471668 		Uiso   ? 		C 		0.51746
C 1.0  		0.33467176177599767 		0.20144273235842575  0.5395718161853533 		Uiso   ? 		C 		0.51746
C 1.0  		0.9371937569332112 		0.981941309255079  0.582156048697836 		Uiso   ? 		C 		0.51746
C 1.0  		0.7674091582980647 		0.20463244675630582  0.6328454372474375 		Uiso   ? 		C 		0.51746
C 1.0  		0.6544673773039587 		0.4203062125821965  0.6715700716470063 		Uiso   ? 		C 		0.51746
C 1.0  		0.19408915009434657 		0.4374815978015507  0.9283619994262065 		Uiso   ? 		C 		0.52887
C 1.0  		0.13802091324980975 		0.8994994602021789  0.5403437358079362 		Uiso   ? 		C 		0.52887
C 1.0  		0.9030438865781808 		0.004171164981843165  0.5844718075655843 		Uiso   ? 		C 		0.52887
C 1.0  		0.7413085445539138 		0.23530277750515263  0.6314302512727026 		Uiso   ? 		C 		0.52887
C 1.0  		0.4661776458424233 		0.1312690156050643  0.6648801015846224 		Uiso   ? 		C 		0.52887
C 1.0  		0.9452721978356955 		0.633035626656198  0.9275900798036236 		Uiso   ? 		C 		0.52887
C 1.0  		0.3936957725794493 		0.09127490430856806  0.5430454544869758 		Uiso   ? 		C 		0.52887
C 1.0  		0.0014637817946447917 		0.8783982726469723  0.5813841290752532 		Uiso   ? 		C 		0.52887
C 1.0  		0.8233268293071743 		0.09250171753852195  0.6292431456753846 		Uiso   ? 		C 		0.52887
C 1.0  		0.7156514803220971 		0.3170085386200805  0.6732425641626023 		Uiso   ? 		C 		0.52887
C 1.0  		0.1408770239164935 		0.6629698694670724  0.9295198788600805 		Uiso   ? 		C 		0.52887
C 1.0  		0.0865188042884992 		0.11949160859750713  0.538928549833201 		Uiso   ? 		C 		0.52887
C 1.0  		0.19647098474016694 		0.8965551084502896  0.5853723804585974 		Uiso   ? 		C 		0.52416
C 1.0  		0.021475060979038195 		0.12709785062322113  0.623196441965153 		Uiso   ? 		C 		0.52416
C 1.0  		0.13898538902017327 		0.6077632741191481  0.8856491136432935 		Uiso   ? 		C 		0.52416
C 1.0  		0.1131426007865714 		0.6058003729512219  0.9319642909982593 		Uiso   ? 		C 		0.52416
C 1.0  		0.05745249905658345 		0.06305820001962902  0.5375133638584659 		Uiso   ? 		C 		0.52416
C 1.0  		0.1640048367509787 		0.8401216998724115  0.5856296869994583 		Uiso   ? 		C 		0.52416
C 1.0  		0.9918398466263495 		0.07041907939935224  0.626541426996345 		Uiso   ? 		C 		0.52416
C 1.0  		0.11443831847519417 		0.5505937776032978  0.885263153832002 		Uiso   ? 		C 		0.52416
C 1.0  		0.0852614261751842 		0.5496123270193347  0.9337654367842858 		Uiso   ? 		C 		0.52416
C 1.0  		0.025010422789979527 		0.005397978211797036  0.5378993236697573 		Uiso   ? 		C 		0.52416
C 1.0  		0.13132619858946093 		0.7836882912945333  0.5844718075655843 		Uiso   ? 		C 		0.52416
C 1.0  		0.9636235020837518 		0.01398567082147414  0.6305296783796892 		Uiso   ? 		C 		0.52416
C 1.0  		0.08779921555235184 		0.4939150063794288  0.8855204603728629 		Uiso   ? 		C 		0.52878
C 1.0  		0.0844175686607539 		0.6337717145941703  0.927976039614915 		Uiso   ? 		C 		0.52878
C 1.0  		0.5297704956609491 		0.08931200314064187  0.5337824190159826 		Uiso   ? 		C 		0.52878
C 1.0  		0.14119898125091523 		0.8739817450191383  0.5827993150499883 		Uiso   ? 		C 		0.52878
C 1.0  		0.9637851543629528 		0.09888114633428208  0.6247402812103185 		Uiso   ? 		C 		0.52878
C 1.0  		0.08278656738193177 		0.5761114927863382  0.8883508323223331 		Uiso   ? 		C 		0.52878
C 1.0  		0.140550424290153 		0.4391991363234862  0.9304204517530938 		Uiso   ? 		C 		0.52878
C 1.0  		0.0833276050245606 		0.895082932574345  0.5367414442358832 		Uiso   ? 		C 		0.52878
C 1.0  		0.8495445065963079 		0.0017175385219354207  0.5830566215908491 		Uiso   ? 		C 		0.52878
C 1.0  		0.19046827918490836 		0.23432132692118954  0.6297577587571065 		Uiso   ? 		C 		0.52878
C 1.0  		0.9043911564388999 		0.113112179801747  0.6716987249174368 		Uiso   ? 		C 		0.52878
C 1.0  		0.08329794941311176 		0.40926489351261164  0.9332508237025638 		Uiso   ? 		C 		0.52878
C 1.0  		0.19619390810800869 		0.20242418294238887  0.5462617862477374 		Uiso   ? 		C 		0.51587
C 1.0  		0.792599510566875 		0.9740897045833744  0.5824133552386969 		Uiso   ? 		C 		0.51587
C 1.0  		0.13362551055278973 		0.20733143586220434  0.6275706531597887 		Uiso   ? 		C 		0.51587
C 1.0  		0.021855907225435123 		0.43257434488173524  0.6664239408297878 		Uiso   ? 		C 		0.51587
C 1.0  		0.11121199336993119 		0.4659436647364806  0.9317069844573984 		Uiso   ? 		C 		0.51587
C 1.0  		0.05719412193497747 		0.9252625380312102  0.534425685368135 		Uiso   ? 		C 		0.51587
C 1.0  		0.8245063437138045 		0.03238786927078222  0.5815127823456836 		Uiso   ? 		C 		0.51587
C 1.0  		0.9924073584714773 		0.9338502306408873  0.6278279597006495 		Uiso   ? 		C 		0.51587
C 1.0  		0.1197018287182851 		0.4166257728923349  0.8884794855927635 		Uiso   ? 		C 		0.51587
C 1.0  		0.19481115578785269 		0.7147413877711257  0.9278473863444846 		Uiso   ? 		C 		0.51587
C 1.0  		0.139578903747956 		0.1724899401315144  0.542788147946115 		Uiso   ? 		C 		0.51587
C 1.0  		0.736010899075366 		0.9493080773383061  0.5803549029118095 		Uiso   ? 		C 		0.51587
C 1.0  		0.07674987257523899 		0.17985081951123763  0.6251262410216099 		Uiso   ? 		C 		0.52664
C 1.0  		0.19126126648117633 		0.6617430562371185  0.8875789126997503 		Uiso   ? 		C 		0.52664
C 1.0  		0.05448310687384553 		0.4374815978015507  0.9322215975391203 		Uiso   ? 		C 		0.52664
C 1.0  		0.16713370605098077 		0.23015016193934637  0.5443319871912804 		Uiso   ? 		C 		0.52664
C 1.0  		0.27360865031579296 		0.00834232996368633  0.5824133552386969 		Uiso   ? 		C 		0.52664
C 1.0  		0.10584904715258692 		0.23677495338109728  0.6260268139146231 		Uiso   ? 		C 		0.52664
C 1.0  		0.06177901397882307 		0.3862008047894789  0.8874502594293198 		Uiso   ? 		C 		0.52664
C 1.0  		0.08282213117532397 		0.49416036902541954  0.9328648638912727 		Uiso   ? 		C 		0.52664
C 1.0  		0.03005512905176322 		0.9547060555501031  0.5351976049907177 		Uiso   ? 		C 		0.52664
C 1.0  		0.2961775706189419 		0.06453037589557367  0.5853723804585974 		Uiso   ? 		C 		0.52664
C 1.0  		0.963984626931438 		0.9615762096378448  0.6306583316501198 		Uiso   ? 		C 		0.52664
C 1.0  		0.09021664631659812 		0.4443517518892924  0.8855204603728629 		Uiso   ? 		C 		0.52664
C 1.0  		0.5724849159871022 		0.2797134164294828  0.7104233593170055 		Uiso   ? 		C 		0.55755
C 1.0  		0.7390706209575759 		0.17175385219354206  0.7600835217031635 		Uiso   ? 		C 		0.55755
C 1.0  		0.3457057983283405 		0.9451369123564629  0.7967497037758448 		Uiso   ? 		C 		0.55755
C 1.0  		0.16089924356063792 		0.6605162430071647  0.8420356549673671 		Uiso   ? 		C 		0.55755
C 1.0  		0.8921676233010094 		0.5476494258514085  0.8841052743981278 		Uiso   ? 		C 		0.55755
C 1.0  		0.6039784235280914 		0.33590146236137014  0.7129964247256148 		Uiso   ? 		C 		0.55755
C 1.0  		0.7649495736045488 		0.22818726077142018  0.7613700544074681 		Uiso   ? 		C 		0.55755
C 1.0  		0.3747187818532575 		0.0014721758759446463  0.7986795028323018 		Uiso   ? 		C 		0.55755
C 1.0  		0.1894836273798781 		0.7176857395230151  0.8444800671055459 		Uiso   ? 		C 		0.55755
C 1.0  		0.9225088695669024 		0.6040828344292866  0.8834620080459755 		Uiso   ? 		C 		0.55755
C 1.0  		0.6564009388115706 		0.2762783393856119  0.7135110378073366 		Uiso   ? 		C 		0.55755
C 1.0  		0.8278280954464143 		0.1771518304053391  0.7560952703198192 		Uiso   ? 		C 		0.55755
C 1.0  		0.43231197822534007 		0.9453822750024538  0.8009952617000501 		Uiso   ? 		C 		0.54690
C 1.0  		0.25075203825655623 		0.6664049465109433  0.8413923886152148 		Uiso   ? 		C 		0.54690
C 1.0  		0.975135077399863 		0.542742172931593  0.886935646347598 		Uiso   ? 		C 		0.54690
C 1.0  		0.5999590788015268 		0.2505152615565806  0.7092654798831314 		Uiso   ? 		C 		0.54690
C 1.0  		0.7714255812586912 		0.14721758759446463  0.7584110291875674 		Uiso   ? 		C 		0.54690
C 1.0  		0.3757057714881352 		0.9171655707135147  0.7994514224548845 		Uiso   ? 		C 		0.54690
C 1.0  		0.19327827558433747 		0.6347531651781334  0.8412637353447843 		Uiso   ? 		C 		0.54690
C 1.0  		0.9188158971487003 		0.5172244577485524  0.8861637267250152 		Uiso   ? 		C 		0.54690
C 1.0  		0.5432061205828569 		0.2232800078516047  0.7096514396944228 		Uiso   ? 		C 		0.54690
C 1.0  		0.7145980867263091 		0.11728334478359015  0.7567385366719714 		Uiso   ? 		C 		0.54690
C 1.0  		0.31857597636997487 		0.887476690548631  0.7959777841532621 		Uiso   ? 		C 		0.54690
C 1.0  		0.13672021229230133 		0.6040828344292866  0.8404918157222017 		Uiso   ? 		C 		0.54690
C 1.0  		0.8625865273109861 		0.4914613799195211  0.8874502594293198 		Uiso   ? 		C 		0.51878
C 1.0  		0.7400229717121191 		0.2510059868485622  0.7137683443481975 		Uiso   ? 		C 		0.51878
C 1.0  		0.910034912308409 		0.14819903817842772  0.7576391095649847 		Uiso   ? 		C 		0.51878
C 1.0  		0.5087398934661573 		0.9142212189616253  0.7985508495618713 		Uiso   ? 		C 		0.51878
C 1.0  		0.32973863318817564 		0.6369614289920503  0.8419070016969366 		Uiso   ? 		C 		0.51878
C 1.0  		0.8279240090347509 		0.26106585533418397  0.667839126804523 		Uiso   ? 		C 		0.51878
C 1.0  		0.7085179721003219 		0.2755422514476396  0.7158267966750849 		Uiso   ? 		C 		0.51878
C 1.0  		0.8813756188734558 		0.1771518304053391  0.7567385366719714 		Uiso   ? 		C 		0.51878
C 1.0  		0.48380033861995064 		0.9463637255864169  0.7991941159140236 		Uiso   ? 		C 		0.51878
C 1.0  		0.30305748999505266 		0.6668956718029247  0.8399772026404797 		Uiso   ? 		C 		0.51878
C 1.0  		0.8007850161515366 		0.2905093728530769  0.672341991269589 		Uiso   ? 		C 		0.51878
C 1.0  		0.49029277260486515 		0.16930022573363432  0.7099087462352837 		Uiso   ? 		C 		0.51878
C 1.0  		0.6620287063023758 		0.06526646383354599  0.7539081647225013 		Uiso   ? 		C 		0.56978
C 1.0  		0.42759937414480603 		0.16758268721169892  0.8018958345930632 		Uiso   ? 		C 		0.56978
C 1.0  		0.24750565077561537 		0.8860045146726864  0.8370181774205792 		Uiso   ? 		C 		0.56978
C 1.0  		0.8083412972310007 		0.4382176857395231  0.8896373650266377 		Uiso   ? 		C 		0.56978
C 1.0  		0.46602393092308 		0.113112179801747  0.7109379723987274 		Uiso   ? 		C 		0.56978
C 1.0  		0.7952043045249317 		0.3388458141132594  0.7571244964832629 		Uiso   ? 		C 		0.56978
C 1.0  		0.3999635590511805 		0.11188536657179313  0.8026677542156461 		Uiso   ? 		C 		0.56978
C 1.0  		0.2183166657848187 		0.8293257434488174  0.842292961508228 		Uiso   ? 		C 		0.56978
C 1.0  		0.7773866521707034 		0.38055746393169104  0.8879648725110417 		Uiso   ? 		C 		0.56978
C 1.0  		0.9383595227731415 		0.14280105996663067  0.7123531583734625 		Uiso   ? 		C 		0.56978
C 1.0  		0.6045966105984371 		0.035822946314653055  0.7564812301311106 		Uiso   ? 		C 		0.56978
C 1.0  		0.36965248768275966 		0.13838453233879675  0.8000946888070368 		Uiso   ? 		C 		0.56978
C 1.0  		0.19109666011100374 		0.8607321621356365  0.8403631624517711 		Uiso   ? 		C 		0.54285
C 1.0  		0.7516781494257794 		0.4107370693885563  0.8913098575422337 		Uiso   ? 		C 		0.54285
C 1.0  		0.1079639176880433 		0.3888997938953774  0.7108093191282969 		Uiso   ? 		C 		0.54285
C 1.0  		0.7646417704638614 		0.28069486701344587  0.759954868432733 		Uiso   ? 		C 		0.54285
C 1.0  		0.3737494364729973 		0.055206595347924235  0.8011239149704805 		Uiso   ? 		C 		0.54285
C 1.0  		0.1878768114826293 		0.7714201589949947  0.8440941072942545 		Uiso   ? 		C 		0.54285
C 1.0  		0.9233533277013114 		0.6563450780253214  0.8839766211276975 		Uiso   ? 		C 		0.54285
C 1.0  		0.9099218904353665 		0.08465011286681716  0.7124818116438929 		Uiso   ? 		C 		0.54285
C 1.0  		0.7371106665814203 		0.31062910982432035  0.7575104562945543 		Uiso   ? 		C 		0.54285
C 1.0  		0.3438633454492356 		0.08170576111492787  0.7984221962914408 		Uiso   ? 		C 		0.54285
C 1.0  		0.162299786119434 		0.8035626656197861  0.8435794942125326 		Uiso   ? 		C 		0.54285
C 1.0  		0.8970642955074153 		0.6857885955442143  0.8838479678572669 		Uiso   ? 		C 		0.54285
C 1.0  		0.8822111657260279 		0.11507508096967319  0.7145402639707803 		Uiso   ? 		C 		0.50836
C 1.0  		0.5467307369269915 		0.004661890273824713  0.7598262151623025 		Uiso   ? 		C 		0.50836
C 1.0  		0.31321710414960435 		0.10795956423594073  0.7961064374236925 		Uiso   ? 		C 		0.50836
C 1.0  		0.13452332271923118 		0.833006183138679  0.8417783484265062 		Uiso   ? 		C 		0.50836
C 1.0  		0.6941080998632235 		0.3839925409755619  0.89028063137879 		Uiso   ? 		C 		0.50836
C 1.0  		0.6299322857907772 		0.30621258219648645  0.7151835303229326 		Uiso   ? 		C 		0.50836
C 1.0  		0.7983998541127438 		0.20414172146432427  0.7584110291875674 		Uiso   ? 		C 		0.50836
C 1.0  		0.40316196575486346 		0.973353616645402  0.7994514224548845 		Uiso   ? 		C 		0.50836
C 1.0  		0.21970488833485027 		0.6914319364020022  0.8437081474829631 		Uiso   ? 		C 		0.50836
C 1.0  		0.9503510716579695 		0.5756207674943568  0.8859064201841543 		Uiso   ? 		C 		0.50836
C 1.0  		0.8217655760661229 		0.3388458141132594  0.7154408368637935 		Uiso   ? 		C 		0.50836
C 1.0  		0.49591526485873916 		0.23579350279713418  0.7508204862321703 		Uiso   ? 		C 		0.50836
C 1.0  		0.5954901303966619 		0.9959269800765532  0.8036969803790898 		Uiso   ? 		C 		0.53228
C 1.0  		0.41756011860317577 		0.7203847286289136  0.8388193232066056 		Uiso   ? 		C 		0.53228
C 1.0  		0.9142997302117244 		0.34669741878496424  0.6719560314582976 		Uiso   ? 		C 		0.53228
C 1.0  		0.7977092245566673 		0.28265776818137206  0.7160841032159457 		Uiso   ? 		C 		0.53228
C 1.0  		0.46854888100545966 		0.17936009421925608  0.753264898370349 		Uiso   ? 		C 		0.53228
C 1.0  		0.5666691846825078 		0.9399842967906566  0.8007379551591891 		Uiso   ? 		C 		0.53228
C 1.0  		0.38766792440452624 		0.6627245068210816  0.8419070016969366 		Uiso   ? 		C 		0.53228
C 1.0  		0.8858708954967973 		0.2902640102070861  0.6696402725905494 		Uiso   ? 		C 		0.53228
C 1.0  		0.7722464546315055 		0.22450682108155856  0.713639691077767 		Uiso   ? 		C 		0.53228
C 1.0  		0.4402667977719976 		0.12194523505741486  0.7559666170493887 		Uiso   ? 		C 		0.53228
C 1.0  		0.5350858667280698 		0.8840416135047602  0.7968783570462753 		Uiso   ? 		C 		0.53228
C 1.0  		0.35507909665645715 		0.6060457355972128  0.8417783484265062 		Uiso   ? 		C 		0.53228
C 1.0  		0.8555208516080564 		0.23211306310727256  0.6711841118357149 		Uiso   ? 		C 		0.52726
C 1.0  		0.7648394734974441 		0.3074393954264403  0.7156981434046544 		Uiso   ? 		C 		0.52726
C 1.0  		0.9379489562652285 		0.2048778094022966  0.7577677628354151 		Uiso   ? 		C 		0.52726
C 1.0  		0.5401195188711135 		0.9718814407694573  0.801252568240911 		Uiso   ? 		C 		0.52726
C 1.0  		0.3591072390058696 		0.6931494749239376  0.841135082074354 		Uiso   ? 		C 		0.52726
C 1.0  		0.8572356737844283 		0.3179899892040436  0.6698975791314103 		Uiso   ? 		C 		0.52726
C 1.0  		0.8285409625401057 		0.11482971832368243  0.7142829574299193 		Uiso   ? 		C 		0.52726
C 1.0  		0.49279110250072317 		0.005152615565806262  0.7584110291875674 		Uiso   ? 		C 		0.52726
C 1.0  		0.25939135185936896 		0.10697811365197764  0.7971356635871362 		Uiso   ? 		C 		0.52726
C 1.0  		0.5819683634312449 		0.8273628422808912  0.8428075745899499 		Uiso   ? 		C 		0.52726
C 1.0  		0.1490643313610912 		0.38865443124938664  0.886935646347598 		Uiso   ? 		C 		0.52726
C 1.0  		0.772629167387906 		0.08587692609677103  0.7133823845369062 		Uiso   ? 		C 		0.52726
C 1.0  		0.6033821330183932 		0.31430954951418194  0.7593116020805807 		Uiso   ? 		C 		0.50465
C 1.0  		0.20419804001475864 		0.07606242025714006  0.8022817944043547 		Uiso   ? 		C 		0.50465
C 1.0  		0.5242668364869604 		0.7986554126999706  0.8467958259732942 		Uiso   ? 		C 		0.50465
C 1.0  		0.2489956627708931 		0.6909412111100206  0.8847485407502801 		Uiso   ? 		C 		0.50465
C 1.0  		0.802464420518539 		0.14427323584257534  0.7118385452917406 		Uiso   ? 		C 		0.50465
C 1.0  		0.46700158696519833 		0.037295122190597704  0.7571244964832629 		Uiso   ? 		C 		0.50465
C 1.0  		0.22892473138663513 		0.13274119148100896  0.7973929701279971 		Uiso   ? 		C 		0.50465
C 1.0  		0.38420174233641063 		0.525321425066248  0.8398485493700493 		Uiso   ? 		C 		0.50465
C 1.0  		0.8809149610764156 		0.1464814996564923  0.6724706445400196 		Uiso   ? 		C 		0.50465
C 1.0  		0.874652531175571 		0.38767298066542355  0.7118385452917406 		Uiso   ? 		C 		0.50465
C 1.0  		0.5466291747997232 		0.287074295809206  0.7560952703198192 		Uiso   ? 		C 		0.50465
C 1.0  		0.14755896393212167 		0.047354990676219455  0.806012739246838 		Uiso   ? 		C 		0.50465
C 1.0  		0.468265230921312 		0.76994798311905  0.8428075745899499 		Uiso   ? 		C 		0.53467
C 1.0  		0.9660936862600519 		0.4014132888409069  0.6693829660496885 		Uiso   ? 		C 		0.53467
C 1.0  		0.7453434230232265 		0.11630189419962705  0.7117098920213102 		Uiso   ? 		C 		0.53467
C 1.0  		0.575851029135952 		0.3442437923250565  0.7591829488101502 		Uiso   ? 		C 		0.53467
C 1.0  		0.6759049589706794 		0.10746883894395919  0.8011239149704805 		Uiso   ? 		C 		0.53467
C 1.0  		0.49508395467105154 		0.8261360290509373  0.8462812128915723 		Uiso   ? 		C 		0.53467
C 1.0  		0.8221028398253146 		0.12022769653547945  0.6750437099486287 		Uiso   ? 		C 		0.53467
C 1.0  		0.7755050484622221 		0.1732260280694867  0.7120958518326015 		Uiso   ? 		C 		0.53467
C 1.0  		0.4392251235649955 		0.06673863970949064  0.7567385366719714 		Uiso   ? 		C 		0.53467
C 1.0  		0.7030259833061973 		0.16341152222985575  0.8024104476747851 		Uiso   ? 		C 		0.53467
C 1.0  		0.35483923969360454 		0.5532927667091962  0.8402345091813406 		Uiso   ? 		C 		0.53467
C 1.0  		0.8550597068500263 		0.17764255569732065  0.6742717903260459 		Uiso   ? 		C 		0.53467
C 1.0  		0.05882414929182017 		0.935322406516832  0.9354379292998818 		Uiso   ? 		C 		0.54414
C 1.0  		0.4980676470315465 		0.40116792619491615  0.5363554844245918 		Uiso   ? 		C 		0.54414
C 1.0  		0.1033023464935823 		0.1781332809893022  0.5812554758048227 		Uiso   ? 		C 		0.54414
C 1.0  		0.9375278716084868 		0.3952792226911375  0.6300150652979675 		Uiso   ? 		C 		0.54414
C 1.0  		0.8177077134551944 		0.6192953184807145  0.6706694987539931 		Uiso   ? 		C 		0.54414
C 1.0  		0.08953343483435577 		0.9924919030326824  0.9373677283563386 		Uiso   ? 		C 		0.54414
C 1.0  		0.5281723314025256 		0.4588281480027481  0.5413729619713799 		Uiso   ? 		C 		0.54414
C 1.0  		0.13500834420690108 		0.23432132692118954  0.5822847019682663 		Uiso   ? 		C 		0.54414
C 1.0  		0.9635623733597727 		0.452448719206988  0.6295004522162455 		Uiso   ? 		C 		0.54414
C 1.0  		0.8468397573779745 		0.6767101776425557  0.6709268052948539 		Uiso   ? 		C 		0.54414
C 1.0  		0.1436230021510389 		0.9323780547649426  0.9332508237025638 		Uiso   ? 		C 		0.54414
C 1.0  		0.5828752975136132 		0.3999411129649622  0.5404723890783665 		Uiso   ? 		C 		0.54414
C 1.0  		0.18550085269371874 		0.1712631269015605  0.5860156468107497 		Uiso   ? 		C 		0.56430
C 1.0  		0.026037163874212288 		0.4014132888409069  0.6238397083173053 		Uiso   ? 		C 		0.56430
C 1.0  		0.9034398609402914 		0.6207674943566591  0.6680964333453838 		Uiso   ? 		C 		0.56430
C 1.0  		0.08632238382882917 		0.904897438413976  0.9317069844573984 		Uiso   ? 		C 		0.56430
C 1.0  		0.5272417312246074 		0.371969771322014  0.5386712432923402 		Uiso   ? 		C 		0.56430
C 1.0  		0.1287895614433289 		0.14623613701050153  0.5865302598924717 		Uiso   ? 		C 		0.56430
C 1.0  		0.9699967140456351 		0.3692707822161154  0.6273133466189278 		Uiso   ? 		C 		0.56430
C 1.0  		0.8476507455469726 		0.5920600647757386  0.6710554585652845 		Uiso   ? 		C 		0.56430
C 1.0  		0.028695393198256813 		0.8788889979389538  0.9328648638912727 		Uiso   ? 		C 		0.56430
C 1.0  		0.4717067729718982 		0.3454706055550103  0.5372560573176051 		Uiso   ? 		C 		0.56430
C 1.0  		0.07260185857389469 		0.1226813229953872  0.583828541213432 		Uiso   ? 		C 		0.56430
C 1.0  		0.9120410299607409 		0.33835508882127785  0.6269273868076364 		Uiso   ? 		C 		0.56430
C 1.0  		0.7911255516003686 		0.5618804593188733  0.6705408454835626 		Uiso   ? 		C 		0.56135
C 1.0  		0.2268945910206407 		0.9098046913337915  0.9299058386713719 		Uiso   ? 		C 		0.56135
C 1.0  		0.6622123364761794 		0.3677986063401708  0.5404723890783665 		Uiso   ? 		C 		0.56135
C 1.0  		0.2670220555935562 		0.1447639611345569  0.5820273954274054 		Uiso   ? 		C 		0.56135
C 1.0  		0.10800741884129306 		0.3736873098439494  0.6237110550468749 		Uiso   ? 		C 		0.56135
C 1.0  		0.22789912689229241 		0.8629404259495534  0.8865496865363066 		Uiso   ? 		C 		0.56135
C 1.0  		0.1960599312712642 		0.9348316812248504  0.929648532130511 		Uiso   ? 		C 		0.56135
C 1.0  		0.6353515724561591 		0.3982235744430268  0.5400864292670753 		Uiso   ? 		C 		0.56135
C 1.0  		0.24104412160828614 		0.17567965452939446  0.5843431542951537 		Uiso   ? 		C 		0.56135
C 1.0  		0.07839955668072526 		0.40116792619491615  0.6237110550468749 		Uiso   ? 		C 		0.56135
C 1.0  		0.20344149345876125 		0.8943468446363726  0.8826900884233927 		Uiso   ? 		C 		0.56135
C 1.0  		0.9725822412409373 		0.826626754342919  0.9317069844573984 		Uiso   ? 		C 		0.56135
C 1.0  		0.4183596470263995 		0.28977328491510457  0.538928549833201 		Uiso   ? 		C 		0.55693
C 1.0  		0.19271926939401227 		0.40116792619491615  0.581898742156975 		Uiso   ? 		C 		0.55693
C 1.0  		0.013390744219644202 		0.6170870546667976  0.6239683615877357 		Uiso   ? 		C 		0.55693
C 1.0  		0.7390950336571273 		0.5083914024928845  0.6707981520244236 		Uiso   ? 		C 		0.55693
C 1.0  		0.9431807660778109 		0.76994798311905  0.9293912255896501 		Uiso   ? 		C 		0.55693
C 1.0  		0.5591302715307616 		0.5704681519285505  0.5436887208391281 		Uiso   ? 		C 		0.55693
C 1.0  		0.16453579419684683 		0.34522524290901957  0.5831852748612797 		Uiso   ? 		C 		0.55693
C 1.0  		0.9873437910739733 		0.5616350966728826  0.6287285325936628 		Uiso   ? 		C 		0.55693
C 1.0  		0.7104777804924548 		0.4507311806850525  0.6714414183765759 		Uiso   ? 		C 		0.55693
C 1.0  		0.4182583122171093 		0.7974285994700168  0.9315783311869679 		Uiso   ? 		C 		0.55693
C 1.0  		0.36131966232168783 		0.25983904210423003  0.5394431629149229 		Uiso   ? 		C 		0.55693
C 1.0  		0.13711857245043862 		0.3736873098439494  0.5797116365596572 		Uiso   ? 		C 		0.55693
C 1.0  		0.9583164583623773 		0.5898518009618215  0.6267987335372058 		Uiso   ? 		C 		0.54119
C 1.0  		0.6824800292970745 		0.47845715968201  0.6688683529679667 		Uiso   ? 		C 		0.54119
C 1.0  		0.5841276600330088 		0.04588281480027481  0.9390402208719347 		Uiso   ? 		C 		0.54119
C 1.0  		0.5284450577108104 		0.5120718421827462  0.5438173741095585 		Uiso   ? 		C 		0.54119
C 1.0  		0.13637639072226568 		0.2880557463931691  0.5790683702075049 		Uiso   ? 		C 		0.54119
C 1.0  		0.9575654790113566 		0.5025026989891059  0.6297577587571065 		Uiso   ? 		C 		0.54119
C 1.0  		0.8469810063045305 		0.7279909706546276  0.6746577501373373 		Uiso   ? 		C 		0.54119
C 1.0  		0.39033547063744195 		0.7390322897242124  0.9342800498660075 		Uiso   ? 		C 		0.54119
C 1.0  		0.5006926660331918 		0.5402885464716852  0.5457471731660155 		Uiso   ? 		C 		0.54119
C 1.0  		0.10931841062965222 		0.3155363627441359  0.5764953047988957 		Uiso   ? 		C 		0.54119
C 1.0  		0.9291844144395973 		0.5324369417999804  0.6271846933484972 		Uiso   ? 		C 		0.54119
C 1.0  		0.8233821311831654 		0.7611149278633821  0.6722133379991586 		Uiso   ? 		C 		0.54119
C 1.0  		0.36271455634155214 		0.7692118951810777  0.9324789040799812 		Uiso   ? 		C 		0.52375
C 1.0  		0.30506389961542985 		0.22892334870939252  0.5424021881348235 		Uiso   ? 		C 		0.52375
C 1.0  		0.08126371836625547 		0.3439984296790657  0.5786824103962135 		Uiso   ? 		C 		0.52375
C 1.0  		0.9015875718662919 		0.5613897340268917  0.6267987335372058 		Uiso   ? 		C 		0.52375
C 1.0  		0.6249821949022716 		0.448032191579154  0.669254312779258 		Uiso   ? 		C 		0.52375
C 1.0  		0.11617291105919864 		0.960349396407891  0.939426180683226 		Uiso   ? 		C 		0.52375
C 1.0  		0.5547636641822 		0.42913926783786444  0.5393145096444925 		Uiso   ? 		C 		0.52375
C 1.0  		0.16040574874319902 		0.20266954558837963  0.5829279683204187 		Uiso   ? 		C 		0.52375
C 1.0  		0.9951243140395863 		0.42717636666993825  0.6261554671850535 		Uiso   ? 		C 		0.52375
C 1.0  		0.8755078484357754 		0.6494749239375798  0.6691256595088275 		Uiso   ? 		C 		0.52375
C 1.0  		0.3086371953746445 		0.9976445185984886  0.9322215975391203 		Uiso   ? 		C 		0.52375
C 1.0  		0.2535604924390609 		0.4561291588968496  0.5377706703993269 		Uiso   ? 		C 		0.52375
C 1.0  		0.3545083710773459 		0.22794189812542942  0.5861443000811802 		Uiso   ? 		C 		0.53607
C 1.0  		0.1915397549873819 		0.46128177446265584  0.6271846933484972 		Uiso   ? 		C 		0.53607
C 1.0  		0.315083141790304 		0.9463637255864169  0.8879648725110417 		Uiso   ? 		C 		0.53607
C 1.0  		0.28336284389922817 		0.940720384728629  0.9311923713756767 		Uiso   ? 		C 		0.53607
C 1.0  		0.22613716751776491 		0.4004318382569438  0.5398291227262142 		Uiso   ? 		C 		0.53607
C 1.0  		0.32462497450154426 		0.17199921483953284  0.5825420085091273 		Uiso   ? 		C 		0.53607
C 1.0  		0.16617559309851684 		0.40460300323878695  0.6243543213990271 		Uiso   ? 		C 		0.53607
C 1.0  		0.28586128745407513 		0.8891942290705664  0.8875789126997503 		Uiso   ? 		C 		0.53607
C 1.0  		0.257998682010363 		0.8840416135047602  0.930163145212233 		Uiso   ? 		C 		0.53607
C 1.0  		0.1972833524581787 		0.3439984296790657  0.5435600675686976 		Uiso   ? 		C 		0.53607
C 1.0  		0.2943735386491 		0.11532044361566396  0.5807408627231009 		Uiso   ? 		C 		0.53607
C 1.0  		0.13938973869420943 		0.34890568259888116  0.6244829746694576 		Uiso   ? 		C 		0.53607
C 1.0  		0.2538529891549782 		0.8332515457846698  0.8850058472911411 		Uiso   ? 		C 		0.52987
C 1.0  		0.25116343270242586 		0.9659927372656787  0.9281046928853456 		Uiso   ? 		C 		0.52987
C 1.0  		0.69167955033017 		0.4254588281480028  0.5400864292670753 		Uiso   ? 		C 		0.52987
C 1.0  		0.29782115154954036 		0.20168809500441653  0.5860156468107497 		Uiso   ? 		C 		0.52987
C 1.0  		0.13519418186767523 		0.430611443713809  0.6228104821538616 		Uiso   ? 		C 		0.52987
C 1.0  		0.2580278829858559 		0.9193738345274316  0.8887367921336244 		Uiso   ? 		C 		0.52987
C 1.0  		0.30883186298330023 		0.7689665325350868  0.931321024646107 		Uiso   ? 		C 		0.52987
C 1.0  		0.25331490560332115 		0.23039552458533713  0.5481915853041942 		Uiso   ? 		C 		0.52987
C 1.0  		0.027781933630078304 		0.3449798802630288  0.5784251038553526 		Uiso   ? 		C 		0.52987
C 1.0  		0.35695583075504167 		0.575375404848366  0.6273133466189278 		Uiso   ? 		C 		0.52987
C 1.0  		0.07845563748575138 		0.465452939444499  0.6616637698238608 		Uiso   ? 		C 		0.52987
C 1.0  		0.25183354524686863 		0.7412405535381293  0.9288766125079282 		Uiso   ? 		C 		0.52987
C 1.0  		0.36438785753366676 		0.5388163705957406  0.540601042348797 		Uiso   ? 		C 		0.50716
C 1.0  		0.9723636802187534 		0.3157817253901266  0.5844718075655843 		Uiso   ? 		C 		0.50716
C 1.0  		0.2994098529150701 		0.5474040632054176  0.6249975877511794 		Uiso   ? 		C 		0.50716
C 1.0  		0.18316451605402861 		0.7581705761114929  0.6724706445400196 		Uiso   ? 		C 		0.50716
C 1.0  		0.2825757001348363 		0.7989007753459614  0.9266895069106105 		Uiso   ? 		C 		0.50716
C 1.0  		0.22462274282293582 		0.25885759152026694  0.5490921581972075 		Uiso   ? 		C 		0.50716
C 1.0  		0.9986764108332331 		0.37393267248994017  0.5798402898300876 		Uiso   ? 		C 		0.50716
C 1.0  		0.16470283537196784 		0.2652370203160271  0.6282139195119409 		Uiso   ? 		C 		0.50716
C 1.0  		0.2793697783822182 		0.7478653449798803  0.8846198874798498 		Uiso   ? 		C 		0.50716
C 1.0  		0.36091669219666533 		0.050790067720090294  0.9287479592374979 		Uiso   ? 		C 		0.50716
C 1.0  		0.30686595141627937 		0.5096182157228384  0.5366127909654528 		Uiso   ? 		C 		0.50716
C 1.0  		0.914808904755934 		0.2860928452252429  0.5836998879430014 		Uiso   ? 		C 		0.50716
C 1.0  		0.24233699886492618 		0.5169790951025617  0.6262841204554841 		Uiso   ? 		C 		0.54399
C 1.0  		0.37096255455806115 		0.9986259691824518  0.8893800584857768 		Uiso   ? 		C 		0.54399
C 1.0  		0.22488297081339964 		0.7719108842869762  0.9273327732627628 		Uiso   ? 		C 		0.54399
C 1.0  		0.3332925641667921 		0.5662969869467073  0.5416302685122407 		Uiso   ? 		C 		0.54399
C 1.0  		0.43685606356389595 		0.33909117675925016  0.582156048697836 		Uiso   ? 		C 		0.54399
C 1.0  		0.2701612324082969 		0.5739032289724213  0.6279566129710801 		Uiso   ? 		C 		0.54399
C 1.0  		0.22049191844025298 		0.7206300912749043  0.8861637267250152 		Uiso   ? 		C 		0.54399
C 1.0  		0.2558047465282646 		0.8290803808028266  0.9297771854009416 		Uiso   ? 		C 		0.54399
C 1.0  		0.19721431869937556 		0.2890371969771322  0.545618519895585 		Uiso   ? 		C 		0.54399
C 1.0  		0.4642793884851919 		0.394788497399156  0.5800975963709486 		Uiso   ? 		C 		0.54399
C 1.0  		0.13485841131648618 		0.2939444498969477  0.6261554671850535 		Uiso   ? 		C 		0.54399
C 1.0  		0.2519284849132258 		0.777554225144764  0.8859064201841543 		Uiso   ? 		C 		0.54399
C 1.0  		0.7483766550617919 		0.6136519776229267  0.7101660527761445 		Uiso   ? 		C 		0.54248
C 1.0  		0.9084890468260831 		0.5042202375110414  0.7581537226467066 		Uiso   ? 		C 		0.54248
C 1.0  		0.5095373603864333 		0.27578761409363045  0.8006093018887587 		Uiso   ? 		C 		0.54248
C 1.0  		0.32883903584568636 		0.9947001668465995  0.842292961508228 		Uiso   ? 		C 		0.54248
C 1.0  		0.05964674319061525 		0.8825694376288155  0.8883508323223331 		Uiso   ? 		C 		0.54248
C 1.0  		0.7773531498802588 		0.6703307488467957  0.7087508668014095 		Uiso   ? 		C 		0.54248
C 1.0  		0.9355859994390165 		0.5613897340268917  0.7622706273004812 		Uiso   ? 		C 		0.54248
C 1.0  		0.5404920054467305 		0.3334478359014624  0.7997087289957455 		Uiso   ? 		C 		0.54248
C 1.0  		0.354051267991256 		0.049808617136127206  0.8446087203759763 		Uiso   ? 		C 		0.54248
C 1.0  		0.08537014673327503 		0.9382667582687212  0.891953123894386 		Uiso   ? 		C 		0.54248
C 1.0  		0.834255554028354 		0.6141427029149084  0.7133823845369062 		Uiso   ? 		C 		0.54248
C 1.0  		0.9961183317624096 		0.5086367651388752  0.7575104562945543 		Uiso   ? 		C 		0.54248
C 1.0  		0.5952847819712668 		0.2743154382176858  0.8022817944043547 		Uiso   ? 		C 		0.54321
C 1.0  		0.4170729219535691 		0.9986259691824518  0.8412637353447843 		Uiso   ? 		C 		0.54321
C 1.0  		0.1494842637867972 		0.8914024928844834  0.885263153832002 		Uiso   ? 		C 		0.54321
C 1.0  		0.7774039877733876 		0.5854352733339877  0.7123531583734625 		Uiso   ? 		C 		0.54321
C 1.0  		0.9378844188143214 		0.4767396211600746  0.7575104562945543 		Uiso   ? 		C 		0.54321
C 1.0  		0.5373707648546526 		0.24560800863676513  0.8036969803790898 		Uiso   ? 		C 		0.54321
C 1.0  		0.35905149917781054 		0.9667288252036511  0.8407491222630625 		Uiso   ? 		C 		0.54321
C 1.0  		0.09328544214855566 		0.8597507115516735  0.8856491136432935 		Uiso   ? 		C 		0.54321
C 1.0  		0.719277480484444 		0.5567278437530672  0.7113239322100188 		Uiso   ? 		C 		0.54321
C 1.0  		0.881302283799701 		0.4472961036411817  0.7577677628354151 		Uiso   ? 		C 		0.54321
C 1.0  		0.47922018584312465 		0.21812739228579844  0.8033110205677984 		Uiso   ? 		C 		0.54321
C 1.0  		0.3015953317512876 		0.938512120914712  0.83727548396144 		Uiso   ? 		C 		0.54321
C 1.0  		0.03644035237047771 		0.8263813916969281  0.8862923799954457 		Uiso   ? 		C 		0.54376
C 1.0  		0.9151545605109392 		0.5846991853960154  0.7132537312664756 		Uiso   ? 		C 		0.54376
C 1.0  		0.08132358120021008 		0.48606340170772405  0.7591829488101502 		Uiso   ? 		C 		0.54376
C 1.0  		0.6768869976617051 		0.24585337128275594  0.8026677542156461 		Uiso   ? 		C 		0.54376
C 1.0  		0.49631135287983885 		0.9650112866817157  0.8465385194324333 		Uiso   ? 		C 		0.54376
C 1.0  		0.9885493250471465 		0.5954951418196095  0.6715700716470063 		Uiso   ? 		C 		0.54376
C 1.0  		0.8860614891084793 		0.6119344391009913  0.7111952789395882 		Uiso   ? 		C 		0.54376
C 1.0  		0.052900849660170696 		0.5137893807046815  0.7539081647225013 		Uiso   ? 		C 		0.54376
C 1.0  		0.647401815260018 		0.2735793502797134  0.8000946888070368 		Uiso   ? 		C 		0.54376
C 1.0  		0.46945058885981855 		0.9954362547845718  0.8457665998098505 		Uiso   ? 		C 		0.54376
C 1.0  		0.9593664432312379 		0.6229757581705762  0.6689970062383971 		Uiso   ? 		C 		0.54376
C 1.0  		0.6655470411625662 		0.5032387869270784  0.7113239322100188 		Uiso   ? 		C 		0.54376
C 1.0  		0.8260932108943646 		0.3955245853371283  0.754937390885945 		Uiso   ? 		C 		0.54241
C 1.0  		0.5970835387041775 		0.5010305231131612  0.8025391009452156 		Uiso   ? 		C 		0.54241
C 1.0  		0.4163054995878881 		0.21469231524192758  0.8457665998098505 		Uiso   ? 		C 		0.54241
C 1.0  		0.9838080559610312 		0.7721562469329669  0.8860350734545847 		Uiso   ? 		C 		0.54241
C 1.0  		0.6368728469298774 		0.44631465305721857  0.713896997618628 		Uiso   ? 		C 		0.54241
C 1.0  		0.9686119002225314 		0.6737658258906665  0.7571244964832629 		Uiso   ? 		C 		0.54241
C 1.0  		0.572479527091182 		0.4445971145352832  0.801252568240911 		Uiso   ? 		C 		0.54241
C 1.0  		0.38453376318370497 		0.15752281872607715  0.84563794653942 		Uiso   ? 		C 		0.54241
C 1.0  		0.953703371590052 		0.714496025125135  0.8857777669137238 		Uiso   ? 		C 		0.54241
C 1.0  		0.10158651807019733 		0.47134164294827763  0.7118385452917406 		Uiso   ? 		C 		0.54241
C 1.0  		0.7679426318828366 		0.3680439689861616  0.7548087376155146 		Uiso   ? 		C 		0.54241
C 1.0  		0.541441174792324 		0.47134164294827763  0.7988081561027321 		Uiso   ? 		C 		0.54241
C 1.0  		0.35983956785526 		0.19015605064285016  0.8447373736464068 		Uiso   ? 		C 		0.54543
C 1.0  		0.926016718603298 		0.7436941799980372  0.8841052743981278 		Uiso   ? 		C 		0.54543
C 1.0  		0.26788602449258603 		0.7223476297968398  0.7113239322100188 		Uiso   ? 		C 		0.54543
C 1.0  		0.9384174054381036 		0.6163509667288253  0.761627360948329 		Uiso   ? 		C 		0.54543
C 1.0  		0.544622424202379 		0.387182255373442  0.8024104476747851 		Uiso   ? 		C 		0.54543
C 1.0  		0.34984410543492483 		0.09961723427225441  0.8465385194324333 		Uiso   ? 		C 		0.54543
C 1.0  		0.08482578169767391 		0.9920011777407008  0.89028063137879 		Uiso   ? 		C 		0.54543
C 1.0  		0.07609967642245141 		0.41441750907841796  0.70887952007184 		Uiso   ? 		C 		0.54543
C 1.0  		0.911802000935845 		0.6472666601236629  0.758539682457998 		Uiso   ? 		C 		0.54543
C 1.0  		0.5144340325928392 		0.4139267837864364  0.7985508495618713 		Uiso   ? 		C 		0.54543
C 1.0  		0.32773266151986646 		0.13274119148100896  0.8458952530802809 		Uiso   ? 		C 		0.54543
C 1.0  		0.05397946720957874 		0.019138286387280403  0.888093525781472 		Uiso   ? 		C 		0.54543
C 1.0  		0.044325245570308175 		0.4396898616154677  0.713896997618628 		Uiso   ? 		C 		0.50567
C 1.0  		0.7122609221486622 		0.342526253803121  0.7562239235902497 		Uiso   ? 		C 		0.50567
C 1.0  		0.4845238698464931 		0.4416527627833939  0.7961064374236925 		Uiso   ? 		C 		0.50567
C 1.0  		0.303954165571604 		0.16635587398174503  0.8437081474829631 		Uiso   ? 		C 		0.50567
C 1.0  		0.8691980216937636 		0.715477475709098  0.8843625809389887 		Uiso   ? 		C 		0.50567
C 1.0  		0.804345391282008 		0.6418686819118659  0.7115812387508796 		Uiso   ? 		C 		0.50567
C 1.0  		0.965986881220886 		0.5346452056138974  0.7625279338413422 		Uiso   ? 		C 		0.50567
C 1.0  		0.5662903186051033 		0.3030228677986064  0.8018958345930632 		Uiso   ? 		C 		0.50567
C 1.0  		0.3867742675690139 		0.026008440475022085  0.8417783484265062 		Uiso   ? 		C 		0.50567
C 1.0  		0.11752141448490872 		0.9154480321915792  0.8891227519449157 		Uiso   ? 		C 		0.50567
C 1.0  		0.9994711186554819 		0.6713121994307588  0.713896997618628 		Uiso   ? 		C 		0.50567
C 1.0  		0.661811168211093 		0.5680145254686427  0.7537795114520709 		Uiso   ? 		C 		0.50567
C 1.0  		0.7617752876323718 		0.3314849347335362  0.8044689000016725 		Uiso   ? 		C 		0.52072
C 1.0  		0.5822240461048909 		0.04760035332221023  0.8444800671055459 		Uiso   ? 		C 		0.52072
C 1.0  		0.07227373341451787 		0.6808813426243989  0.6683537398862448 		Uiso   ? 		C 		0.52072
C 1.0  		0.972888956800656 		0.6138973402689174  0.7141543041594889 		Uiso   ? 		C 		0.52072
C 1.0  		0.6349026340479048 		0.5120718421827462  0.7559666170493887 		Uiso   ? 		C 		0.52072
C 1.0  		0.7333464529174446 		0.2750515261556581  0.8045975532721029 		Uiso   ? 		C 		0.52072
C 1.0  		0.5529985724076444 		0.9912650898027285  0.843965454023824 		Uiso   ? 		C 		0.52072
C 1.0  		0.04505410104270352 		0.6234664834625577  0.6687396996975362 		Uiso   ? 		C 		0.52072
C 1.0  		0.9455225729473766 		0.5574639316910394  0.7118385452917406 		Uiso   ? 		C 		0.52072
C 1.0  		0.6064737993329776 		0.45563843360486805  0.758282375917137 		Uiso   ? 		C 		0.52072
C 1.0  		0.7047620690982044 		0.21788202963980766  0.8025391009452156 		Uiso   ? 		C 		0.52072
C 1.0  		0.5213823851077742 		0.9348316812248504  0.8452519867281286 		Uiso   ? 		C 		0.52072
C 1.0  		0.014377684845600203 		0.5667877122386888  0.6683537398862448 		Uiso   ? 		C 		0.52220
C 1.0  		0.943370905053537 		0.6411325939738934  0.7120958518326015 		Uiso   ? 		C 		0.52220
C 1.0  		0.1102102656052284 		0.5429875355775837  0.7541654712633623 		Uiso   ? 		C 		0.52220
C 1.0  		0.7048667803093889 		0.30351359309058795  0.8013812215113415 		Uiso   ? 		C 		0.52220
C 1.0  		0.5266650161295975 		0.02232800078516047  0.8434508409421022 		Uiso   ? 		C 		0.52220
C 1.0  		0.01764567691914326 		0.653646088919423  0.6662952875593574 		Uiso   ? 		C 		0.52220
C 1.0  		0.9891616362605826 		0.4365001472175876  0.7163414097568067 		Uiso   ? 		C 		0.52220
C 1.0  		0.6603475814093925 		0.3415448032191579  0.7560952703198192 		Uiso   ? 		C 		0.52220
C 1.0  		0.43094347707401937 		0.44116203749141236  0.8006093018887587 		Uiso   ? 		C 		0.52220
C 1.0  		0.746472586497718 		0.1648836981058004  0.8435794942125326 		Uiso   ? 		C 		0.52220
C 1.0  		0.3057398233667151 		0.7164589262930612  0.8817895155303795 		Uiso   ? 		C 		0.52220
C 1.0  		0.9314207634939773 		0.4119638826185102  0.7154408368637935 		Uiso   ? 		C 		0.52220
C 1.0  		0.7731926698861273 		0.6462852095396997  0.7522356722069053 		Uiso   ? 		C 		0.53002
C 1.0  		0.3730294599574053 		0.41245460791049177  0.7990654626435931 		Uiso   ? 		C 		0.53002
C 1.0  		0.6893339937567097 		0.13347727941898127  0.8434508409421022 		Uiso   ? 		C 		0.53002
C 1.0  		0.4260280083819604 		0.02674452841299441  0.8879648725110417 		Uiso   ? 		C 		0.53002
C 1.0  		0.9665025322419841 		0.4693787417803514  0.7106806658578665 		Uiso   ? 		C 		0.53002
C 1.0  		0.6352196081134407 		0.3724604966139955  0.7586683357284284 		Uiso   ? 		C 		0.53002
C 1.0  		0.403502183605027 		0.47085091765629605  0.7964923972349839 		Uiso   ? 		C 		0.53002
C 1.0  		0.552908161374217 		0.8550888212778487  0.8467958259732942 		Uiso   ? 		C 		0.53002
C 1.0  		0.04569976856256128 		0.48876239081362255  0.6629503025281653 		Uiso   ? 		C 		0.53002
C 1.0  		0.05003545440964957 		0.7248012562567476  0.7102947060465751 		Uiso   ? 		C 		0.53002
C 1.0  		0.7163586988768565 		0.62101285700265  0.751849712395614 		Uiso   ? 		C 		0.53002
C 1.0  		0.3166116716699457 		0.3854647168515066  0.7993227691844541 		Uiso   ? 		C 		0.53002
C 1.0  		0.6322194727382856 		0.10084404750220827  0.8444800671055459 		Uiso   ? 		C 		0.51987
C 1.0  		0.1252592965602624 		0.7311806850525077  0.6709268052948539 		Uiso   ? 		C 		0.51987
C 1.0  		0.9075524571322661 		0.44582392776523705  0.7097800929648532 		Uiso   ? 		C 		0.51987
C 1.0  		0.7475258341094833 		0.678673078810482  0.753264898370349 		Uiso   ? 		C 		0.51987
C 1.0  		0.8406333269482006 		0.44287957601334776  0.8004806486183282 		Uiso   ? 		C 		0.51987
C 1.0  		0.6581641640761229 		0.1582589066640495  0.8424216147786585 		Uiso   ? 		C 		0.51987
C 1.0  		0.9892102666667408 		0.45784669741878503  0.667581820263662 		Uiso   ? 		C 		0.51987
C 1.0  		0.9436966767419208 		0.5032387869270784  0.7108093191282969 		Uiso   ? 		C 		0.51987
C 1.0  		0.6071737134728918 		0.40264010207086076  0.7558379637789583 		Uiso   ? 		C 		0.51987
C 1.0  		0.8675089917659567 		0.4983315340072628  0.7982935430210104 		Uiso   ? 		C 		0.51987
C 1.0  		0.5232104888002005 		0.8828148002748062  0.8458952530802809 		Uiso   ? 		C 		0.51987
C 1.0  		0.013524429088343282 		0.5128079301207185  0.6673245137228011 		Uiso   ? 		C 		0.51987
C 1.0  		0.22514217587296234 		0.2713710864657965  0.9266895069106105 		Uiso   ? 		C 		0.55015
C 1.0  		0.6725946346588103 		0.7353518500343508  0.5475483189520419 		Uiso   ? 		C 		0.55015
C 1.0  		0.2709879816380211 		0.51010894101482  0.5820273954274054 		Uiso   ? 		C 		0.55015
C 1.0  		0.09276357429358079 		0.7282363333006183  0.6230677886947226 		Uiso   ? 		C 		0.55015
C 1.0  		0.994425341496618 		0.9544606929041124  0.6720846847287282 		Uiso   ? 		C 		0.55015
C 1.0  		0.2532117689340948 		0.3287859456276377  0.9288766125079282 		Uiso   ? 		C 		0.55015
C 1.0  		0.7078888935791467 		0.792766709196192  0.5476769722224724 		Uiso   ? 		C 		0.55015
C 1.0  		0.2996950452161422 		0.5675238001766612  0.5809981692639618 		Uiso   ? 		C 		0.55015
C 1.0  		0.11766988649235455 		0.7844243792325057  0.6273133466189278 		Uiso   ? 		C 		0.55015
C 1.0  		0.022519802936001046 		0.011041319069584847  0.6718273781878673 		Uiso   ? 		C 		0.55015
C 1.0  		0.3125261012915271 		0.2752968888016489  0.9302917984826633 		Uiso   ? 		C 		0.55015
C 1.0  		0.75578985302973 		0.727500245362646  0.5421448815939626 		Uiso   ? 		C 		0.55015
C 1.0  		0.3590903903641752 		0.5120718421827462  0.585501033729028 		Uiso   ? 		C 		0.52211
C 1.0  		0.18157798985043572 		0.7328982235744431  0.6246116279398881 		Uiso   ? 		C 		0.52211
C 1.0  		0.08038243054842953 		0.9542153302581216  0.6684823931566752 		Uiso   ? 		C 		0.52211
C 1.0  		0.25517501837818923 		0.24389047011482973  0.9291339190487893 		Uiso   ? 		C 		0.52211
C 1.0  		0.6988989409524429 		0.7029639807635687  0.5424021881348235 		Uiso   ? 		C 		0.52211
C 1.0  		0.3022957651772252 		0.48262832466385325  0.5824133552386969 		Uiso   ? 		C 		0.52211
C 1.0  		0.12458614859089256 		0.7005103543036608  0.6226818288834312 		Uiso   ? 		C 		0.52211
C 1.0  		0.024904413363736888 		0.9269800765531456  0.6718273781878673 		Uiso   ? 		C 		0.52211
C 1.0  		0.19847020360468792 		0.21420158994994604  0.9269468134514713 		Uiso   ? 		C 		0.52211
C 1.0  		0.6410923294949733 		0.6774462655805281  0.542788147946115 		Uiso   ? 		C 		0.52211
C 1.0  		0.24519883940449697 		0.4534301697909511  0.5804835561822399 		Uiso   ? 		C 		0.52211
C 1.0  		0.06645084367910092 		0.6700853862008048  0.6217812559904179 		Uiso   ? 		C 		0.52211
C 1.0  		0.9666580490212637 		0.8968004710962804  0.6758156295712116 		Uiso   ? 		C 		0.55075
C 1.0  		0.39360472860100965 		0.2453626459907744  0.9365958087337559 		Uiso   ? 		C 		0.55075
C 1.0  		0.8354555854466181 		0.7002649916576701  0.5393145096444925 		Uiso   ? 		C 		0.55075
C 1.0  		0.4384274293267415 		0.4799293355579547  0.5842145010247234 		Uiso   ? 		C 		0.55075
C 1.0  		0.2660675786859981 		0.7110609480812642  0.6255122008329013 		Uiso   ? 		C 		0.55075
C 1.0  		0.39107562318770084 		0.19015605064285016  0.8900233248379291 		Uiso   ? 		C 		0.55075
C 1.0  		0.36530467681985124 		0.2733339876337227  0.9365958087337559 		Uiso   ? 		C 		0.55075
C 1.0  		0.8076791220464155 		0.729708509176563  0.5375133638584659 		Uiso   ? 		C 		0.55075
C 1.0  		0.4131198352038922 		0.5113357542447738  0.5851150739177365 		Uiso   ? 		C 		0.55075
C 1.0  		0.2358463177310259 		0.737314751202277  0.6255122008329013 		Uiso   ? 		C 		0.55075
C 1.0  		0.36278436902939026 		0.21984493080773385  0.8905379379196509 		Uiso   ? 		C 		0.55075
C 1.0  		0.1465623654203274 		0.160957895769948  0.9320929442686898 		Uiso   ? 		C 		0.55075
C 1.0  		0.58687996876042 		0.6246932966925115  0.5420162283235321 		Uiso   ? 		C 		0.56030
C 1.0  		0.3495679057496451 		0.7331435862204339  0.5826706617795577 		Uiso   ? 		C 		0.56030
C 1.0  		0.1850238822248954 		0.9493080773383061  0.6238397083173053 		Uiso   ? 		C 		0.56030
C 1.0  		0.9140229299064657 		0.8438021395622731  0.6747864034077679 		Uiso   ? 		C 		0.56030
C 1.0  		0.11985752380662079 		0.10329767396211602  0.9351806227590209 		Uiso   ? 		C 		0.56030
C 1.0  		0.7328795136364602 		0.9009716360781236  0.5366127909654528 		Uiso   ? 		C 		0.56030
C 1.0  		0.3230514825856836 		0.6767101776425557  0.5830566215908491 		Uiso   ? 		C 		0.56030
C 1.0  		0.15388961633770082 		0.8921385808224557  0.6261554671850535 		Uiso   ? 		C 		0.56030
C 1.0  		0.8803628536739012 		0.7854058298164688  0.672856604351311 		Uiso   ? 		C 		0.56030
C 1.0  		0.5824907828972768 		0.1293061144371381  0.9335081302434249 		Uiso   ? 		C 		0.56030
C 1.0  		0.5307404093361544 		0.5986848562174895  0.5443319871912804 		Uiso   ? 		C 		0.56030
C 1.0  		0.2928061499081272 		0.7041907939935225  0.5822847019682663 		Uiso   ? 		C 		0.56030
C 1.0  		0.12950651921788187 		0.9262439886151733  0.6255122008329013 		Uiso   ? 		C 		0.53619
C 1.0  		0.8582273380362585 		0.8197566002551773  0.672856604351311 		Uiso   ? 		C 		0.53619
C 1.0  		0.7521308698629622 		0.3746687604279125  0.9347946629477295 		Uiso   ? 		C 		0.53619
C 1.0  		0.7081856916100159 		0.8447835901462363  0.5421448815939626 		Uiso   ? 		C 		0.53619
C 1.0  		0.2984803403181202 		0.6207674943566591  0.5829279683204187 		Uiso   ? 		C 		0.53619
C 1.0  		0.12051656659117793 		0.8364412601825498  0.6288571858640932 		Uiso   ? 		C 		0.53619
C 1.0  		0.021730078382638164 		0.0642850132495829  0.672856604351311 		Uiso   ? 		C 		0.53619
C 1.0  		0.5548220984582192 		0.07311806850525077  0.9395548339536566 		Uiso   ? 		C 		0.53619
C 1.0  		0.675773790240884 		0.8700559426832859  0.5412443087009493 		Uiso   ? 		C 		0.53619
C 1.0  		0.267834099018489 		0.647021297477672  0.586658913162902 		Uiso   ? 		C 		0.53619
C 1.0  		0.09777644978197891 		0.8712827559132399  0.6304010251092589 		Uiso   ? 		C 		0.53619
C 1.0  		0.9895992285820516 		0.08931200314064187  0.6702835389427017 		Uiso   ? 		C 		0.53619
C 1.0  		0.5255165368834295 		0.10035332221022672  0.9374963816267692 		Uiso   ? 		C 		0.53648
C 1.0  		0.47365228118627417 		0.5712042398665227  0.545618519895585 		Uiso   ? 		C 		0.53648
C 1.0  		0.23639483809755624 		0.6725390126607126  0.5862729533516108 		Uiso   ? 		C 		0.53648
C 1.0  		0.07313919552155035 		0.9031798998920405  0.6280852662415105 		Uiso   ? 		C 		0.53648
C 1.0  		0.8007230271645671 		0.793993522426146  0.6689970062383971 		Uiso   ? 		C 		0.53648
C 1.0  		0.282729820681214 		0.30155069192266176  0.9291339190487893 		Uiso   ? 		C 		0.53648
C 1.0  		0.730661879733778 		0.7584159387574837  0.5469050525998896 		Uiso   ? 		C 		0.53648
C 1.0  		0.32930290737671003 		0.5400431838256944  0.5804835561822399 		Uiso   ? 		C 		0.53648
C 1.0  		0.14932163758561692 		0.7589066640494652  0.6255122008329013 		Uiso   ? 		C 		0.53648
C 1.0  		0.052605967148226684 		0.9836588477770146  0.6691256595088275 		Uiso   ? 		C 		0.53648
C 1.0  		0.47887633194805546 		0.3287859456276377  0.9358238891111732 		Uiso   ? 		C 		0.53648
C 1.0  		0.423421493897923 		0.7920306212582198  0.5387998965627705 		Uiso   ? 		C 		0.53648
C 1.0  		0.5256924570153537 		0.5613897340268917  0.5892319785715113 		Uiso   ? 		C 		0.53524
C 1.0  		0.35141371834675605 		0.797183236824026  0.6266700802667755 		Uiso   ? 		C 		0.53524
C 1.0  		0.4761523316081129 		0.2770144273235843  0.8915671640830946 		Uiso   ? 		C 		0.53524
C 1.0  		0.4502350070607988 		0.2723525370497596  0.9371104218154778 		Uiso   ? 		C 		0.53524
C 1.0  		0.3953278291142062 		0.7358425753263325  0.5373847105880355 		Uiso   ? 		C 		0.53524
C 1.0  		0.4960127529890337 		0.5037295122190598  0.586658913162902 		Uiso   ? 		C 		0.53524
C 1.0  		0.32355661545795317 		0.7397683776621848  0.6257695073737621 		Uiso   ? 		C 		0.53524
C 1.0  		0.44917805875406025 		0.22009029345372463  0.8896373650266377 		Uiso   ? 		C 		0.53524
C 1.0  		0.42074372148422395 		0.21591912847188147  0.9387829143310737 		Uiso   ? 		C 		0.53524
C 1.0  		0.3644301251219255 		0.6774462655805281  0.5418875750531016 		Uiso   ? 		C 		0.53524
C 1.0  		0.46384890558562375 		0.44705074099519093  0.58331392813171 		Uiso   ? 		C 		0.53524
C 1.0  		0.2951847218110425 		0.6825988811463344  0.6262841204554841 		Uiso   ? 		C 		0.53524
C 1.0  		0.4206506160028365 		0.16218470899990187  0.8900233248379291 		Uiso   ? 		C 		0.52817
C 1.0  		0.42194375290248815 		0.3020414172146433  0.9374963816267692 		Uiso   ? 		C 		0.52817
C 1.0  		0.8630191853724909 		0.7596427519874375  0.5371274040471745 		Uiso   ? 		C 		0.52817
C 1.0  		0.4694630871776394 		0.5356266561978604  0.5856296869994583 		Uiso   ? 		C 		0.52817
C 1.0  		0.293924681574801 		0.7684758072431054  0.6262841204554841 		Uiso   ? 		C 		0.52817
C 1.0  		0.4195461248709081 		0.24879772303464523  0.8898946715674986 		Uiso   ? 		C 		0.52817
C 1.0  		0.47573041901341456 		0.10575130042202376  0.9371104218154778 		Uiso   ? 		C 		0.52817
C 1.0  		0.4193839533056839 		0.5667877122386888  0.5462617862477374 		Uiso   ? 		C 		0.52817
C 1.0  		0.18357459560095202 		0.6722936500147219  0.584986420647306 		Uiso   ? 		C 		0.52817
C 1.0  		0.5190574592049368 		0.9017077240160958  0.6284712260528018 		Uiso   ? 		C 		0.52817
C 1.0  		0.24004015403157938 		0.7856511924624595  0.6716987249174368 		Uiso   ? 		C 		0.52817
C 1.0  		0.4180048203465456 		0.07827068407105703  0.9299058386713719 		Uiso   ? 		C 		0.52817
C 1.0  		0.5328072500854312 		0.8658847777014428  0.5372560573176051 		Uiso   ? 		C 		0.51870
C 1.0  		0.12639665703762296 		0.6450583963097458  0.582156048697836 		Uiso   ? 		C 		0.51870
C 1.0  		0.4608740108479767 		0.8737363823731475  0.6283425727823715 		Uiso   ? 		C 		0.51870
C 1.0  		0.3588168361179337 		0.09716360781234666  0.6733712174330327 		Uiso   ? 		C 		0.51870
C 1.0  		0.44877104695709763 		0.13470409264893515  0.9345373564068686 		Uiso   ? 		C 		0.51870
C 1.0  		0.39002145066287774 		0.5947590538816371  0.5438173741095585 		Uiso   ? 		C 		0.51870
C 1.0  		0.15494817151143098 		0.7017371675336147  0.582156048697836 		Uiso   ? 		C 		0.51870
C 1.0  		0.3280271060797425 		0.6050642850132497  0.6283425727823715 		Uiso   ? 		C 		0.51870
C 1.0  		0.4535828106849851 		0.08440475022082639  0.8844912342094192 		Uiso   ? 		C 		0.51870
C 1.0  		0.5322956730613069 		0.38080282657768183  0.9309350648348156 		Uiso   ? 		C 		0.51870
C 1.0  		0.4764399263890997 		0.84282068897831  0.5416302685122407 		Uiso   ? 		C 		0.51870
C 1.0  		0.07049365950827116 		0.6178231426047699  0.5794543300187962 		Uiso   ? 		C 		0.51870
C 1.0  		0.4059612490125196 		0.8501815683580332  0.6252548942920404 		Uiso   ? 		C 		0.53099
C 1.0  		0.5300864634794721 		0.3287859456276377  0.8913098575422337 		Uiso   ? 		C 		0.53099
C 1.0  		0.3926643568782642 		0.1091863774658946  0.9292625723192196 		Uiso   ? 		C 		0.53099
C 1.0  		0.5089060743782879 		0.8992540975561881  0.5376420171288965 		Uiso   ? 		C 		0.53099
C 1.0  		0.6027278951936655 		0.6725390126607126  0.5873021795150544 		Uiso   ? 		C 		0.53099
C 1.0  		0.4354525345890944 		0.9066149769359113  0.6284712260528018 		Uiso   ? 		C 		0.53099
C 1.0  		0.3973358456015751 		0.055206595347924235  0.886935646347598 		Uiso   ? 		C 		0.53099
C 1.0  		0.42032424369447396 		0.16365688487584654  0.9368531152746169 		Uiso   ? 		C 		0.53099
C 1.0  		0.3632176277108739 		0.6244479340465208  0.5416302685122407 		Uiso   ? 		C 		0.53099
C 1.0  		0.627454586565542 		0.7292177838845815  0.5856296869994583 		Uiso   ? 		C 		0.53099
C 1.0  		0.29902384509073104 		0.6320541760722348  0.6283425727823715 		Uiso   ? 		C 		0.53099
C 1.0  		0.42443279821450863 		0.11237609186377467  0.8878362192406112 		Uiso   ? 		C 		0.53099
C 1.0  		0.907661291349346 		0.9470998135243891  0.7104233593170055 		Uiso   ? 		C 		0.54526
C 1.0  		0.07650055271949247 		0.8423299636863284  0.7522356722069053 		Uiso   ? 		C 		0.54526
C 1.0  		0.6752142970895691 		0.6126705270389636  0.7981648897505799 		Uiso   ? 		C 		0.54526
C 1.0  		0.49138685924695397 		0.3236333300618314  0.8442227605646849 		Uiso   ? 		C 		0.54526
C 1.0  		0.22229317462817955 		0.21297477671999215  0.8842339276685584 		Uiso   ? 		C 		0.54526
C 1.0  		0.9386764968386774 		0.0031897143978800667  0.713639691077767 		Uiso   ? 		C 		0.54526
C 1.0  		0.10335214581466434 		0.8990087349101974  0.7537795114520709 		Uiso   ? 		C 		0.54526
C 1.0  		0.7036431318044964 		0.6691039356168417  0.7955918243419707 		Uiso   ? 		C 		0.54526
C 1.0  		0.5179690211017797 		0.3810481892236726  0.8442227605646849 		Uiso   ? 		C 		0.54526
C 1.0  		0.24789389841195847 		0.2684267347139072  0.8844912342094192 		Uiso   ? 		C 		0.54526
C 1.0  		0.9905060656893189 		0.9419471979585828  0.7160841032159457 		Uiso   ? 		C 		0.54526
C 1.0  		0.16352523648426254 		0.8472372166061439  0.7589256422692893 		Uiso   ? 		C 		0.54526
C 1.0  		0.7620987058497625 		0.6138973402689174  0.7952058645306793 		Uiso   ? 		C 		0.52014
C 1.0  		0.5797434251137177 		0.3278044950436746  0.8461525596211419 		Uiso   ? 		C 		0.52014
C 1.0  		0.3088600087028583 		0.2173913043478261  0.8910525510013728 		Uiso   ? 		C 		0.52014
C 1.0  		0.9344234473330698 		0.9152026695455885  0.7140256508890584 		Uiso   ? 		C 		0.52014
C 1.0  		0.10632090505238995 		0.8148493473353617  0.7560952703198192 		Uiso   ? 		C 		0.52014
C 1.0  		0.7058517407663525 		0.5846991853960154  0.8004806486183282 		Uiso   ? 		C 		0.52014
C 1.0  		0.5239455120975509 		0.29737952694081854  0.8448660269168373 		Uiso   ? 		C 		0.52014
C 1.0  		0.25281673616892986 		0.18647561095298854  0.8895087117562072 		Uiso   ? 		C 		0.52014
C 1.0  		0.8767395156344808 		0.8899303170085386  0.7108093191282969 		Uiso   ? 		C 		0.52014
C 1.0  		0.049738770037769386 		0.7854058298164688  0.7527502852886272 		Uiso   ? 		C 		0.52014
C 1.0  		0.6487876843390565 		0.5559917558150947  0.8006093018887587 		Uiso   ? 		C 		0.52014
C 1.0  		0.46738744880551475 		0.26670919619197175  0.8434508409421022 		Uiso   ? 		C 		0.52014
C 1.0  		0.19553139194645647 		0.1560506428501325  0.8884794855927635 		Uiso   ? 		C 		0.54769
C 1.0  		0.07354474643554393 		0.9171655707135147  0.7135110378073366 		Uiso   ? 		C 		0.54769
C 1.0  		0.244032131967621 		0.8182844243792325  0.756867189942402 		Uiso   ? 		C 		0.54769
C 1.0  		0.841632960884922 		0.5846991853960154  0.7968783570462753 		Uiso   ? 		C 		0.54769
C 1.0  		0.6626053077383967 		0.302286779860634  0.8447373736464068 		Uiso   ? 		C 		0.54769
C 1.0  		0.16217306468861314 		0.9269800765531456  0.6702835389427017 		Uiso   ? 		C 		0.54769
C 1.0  		0.0433234854805718 		0.9434193738345276  0.7165987162976677 		Uiso   ? 		C 		0.54769
C 1.0  		0.21512747901490611 		0.8467464913141625  0.7545514310746537 		Uiso   ? 		C 		0.54769
C 1.0  		0.8175192950054491 		0.6180685052507607  0.7964923972349839 		Uiso   ? 		C 		0.54769
C 1.0  		0.6357116743729442 		0.33222102267150855  0.8464098661620028 		Uiso   ? 		C 		0.54769
C 1.0  		0.1343966012884102 		0.9564235940720386  0.6688683529679667 		Uiso   ? 		C 		0.54769
C 1.0  		0.8279204219987668 		0.835214446952596  0.7140256508890584 		Uiso   ? 		C 		0.54769
C 1.0  		0.9984383557303165 		0.7304445971145354  0.7548087376155146 		Uiso   ? 		C 		0.54440
C 1.0  		0.7586486258193401 		0.835214446952596  0.8008666084296195 		Uiso   ? 		C 		0.54440
C 1.0  		0.5754586584937136 		0.5461772499754638  0.8385620166657446 		Uiso   ? 		C 		0.54440
C 1.0  		0.1404449988000009 		0.10452448719206989  0.8904092846492204 		Uiso   ? 		C 		0.54440
C 1.0  		0.8020655410743783 		0.777554225144764  0.7129964247256148 		Uiso   ? 		C 		0.54440
C 1.0  		0.1333322672328711 		0.00785160467170478  0.7569958432128324 		Uiso   ? 		C 		0.54440
C 1.0  		0.7319766535510657 		0.7780449504367455  0.7993227691844541 		Uiso   ? 		C 		0.54440
C 1.0  		0.546302542848349 		0.4899892040435765  0.8379187503135923 		Uiso   ? 		C 		0.54440
C 1.0  		0.11083103346454522 		0.04784571596820101  0.8904092846492204 		Uiso   ? 		C 		0.54440
C 1.0  		0.27450571587823297 		0.8116596329374817  0.7127391181847539 		Uiso   ? 		C 		0.54440
C 1.0  		0.9414488356167329 		0.7044361566395133  0.7603408282440244 		Uiso   ? 		C 		0.54440
C 1.0  		0.701429020287731 		0.805770929433703  0.7994514224548845 		Uiso   ? 		C 		0.54440
C 1.0  		0.5181339684489195 		0.519923446854451  0.8397198960996188 		Uiso   ? 		C 		0.54009
C 1.0  		0.08369204058133096 		0.07728923348709393  0.89028063137879 		Uiso   ? 		C 		0.54009
C 1.0  		0.43844505689747093 		0.056678771223868885  0.7093941331535619 		Uiso   ? 		C 		0.54009
C 1.0  		0.10246381322500486 		0.9507802532142507  0.7589256422692893 		Uiso   ? 		C 		0.54009
C 1.0  		0.7046102696977862 		0.7216115418588674  0.7959777841532621 		Uiso   ? 		C 		0.54009
C 1.0  		0.5177269566519568 		0.43453724604966143  0.8408777755334929 		Uiso   ? 		C 		0.54009
C 1.0  		0.2503243957889707 		0.32216115418588676  0.8848771940207106 		Uiso   ? 		C 		0.54009
C 1.0  		0.24243167888827166 		0.754735499067622  0.713896997618628 		Uiso   ? 		C 		0.54009
C 1.0  		0.07675531048008088 		0.980959858671116  0.7620133207596204 		Uiso   ? 		C 		0.54009
C 1.0  		0.6765227080889573 		0.7495828835018158  0.7948199047193879 		Uiso   ? 		C 		0.54009
C 1.0  		0.48967226438856004 		0.4629993129845913  0.8417783484265062 		Uiso   ? 		C 		0.54009
C 1.0  		0.22681533108105423 		0.3550397487486506  0.8847485407502801 		Uiso   ? 		C 		0.54009
C 1.0  		0.21779442462784318 		0.7866326430464227  0.7140256508890584 		Uiso   ? 		C 		0.51697
C 1.0  		0.8842380277079718 		0.6767101776425557  0.7580250693762761 		Uiso   ? 		C 		0.51697
C 1.0  		0.6446584668233654 		0.7751005986848563  0.7973929701279971 		Uiso   ? 		C 		0.51697
C 1.0  		0.4621981015741353 		0.49219746785749335  0.8415210418856454 		Uiso   ? 		C 		0.51697
C 1.0  		0.027364062707320114 		0.05005397978211797  0.8875789126997503 		Uiso   ? 		C 		0.51697
C 1.0  		0.9632203213246395 		0.972372166061439  0.7167273695680981 		Uiso   ? 		C 		0.51697
C 1.0  		0.13442336745895456 		0.8727549317891845  0.7557093105085277 		Uiso   ? 		C 		0.51697
C 1.0  		0.7324908436891947 		0.6413779566198842  0.7948199047193879 		Uiso   ? 		C 		0.51697
C 1.0  		0.5486152624014109 		0.35479438610265973  0.8435794942125326 		Uiso   ? 		C 		0.51697
C 1.0  		0.2789739176790966 		0.24389047011482973  0.8874502594293198 		Uiso   ? 		C 		0.51697
C 1.0  		0.1588287667664553 		0.0014721758759446463  0.7101660527761445 		Uiso   ? 		C 		0.51697
C 1.0  		0.8268242415286966 		0.8997448228481696  0.7523643254773358 		Uiso   ? 		C 		0.51697
C 1.0  		0.9284401388834431 		0.665668858572971  0.8026677542156461 		Uiso   ? 		C 		0.50927
C 1.0  		0.750564747012014 		0.3830110903915988  0.843965454023824 		Uiso   ? 		C 		0.50927
C 1.0  		0.250350934641537 		0.013249582883501816  0.672856604351311 		Uiso   ? 		C 		0.50927
C 1.0  		0.13152450224302248 		0.9468544508783984  0.7150548770525021 		Uiso   ? 		C 		0.50927
C 1.0  		0.8022530992611332 		0.8438021395622731  0.7564812301311106 		Uiso   ? 		C 		0.50927
C 1.0  		0.897560030136858 		0.6107076258710374  0.801252568240911 		Uiso   ? 		C 		0.50927
C 1.0  		0.7190383701255927 		0.3263323191677299  0.8438368007533936 		Uiso   ? 		C 		0.50927
C 1.0  		0.220209761564108 		0.955932868780057  0.6706694987539931 		Uiso   ? 		C 		0.50927
C 1.0  		0.10513955646078982 		0.8923839434684464  0.7083649069901182 		Uiso   ? 		C 		0.50927
C 1.0  		0.7777148263390019 		0.7883501815683581  0.7580250693762761 		Uiso   ? 		C 		0.50927
C 1.0  		0.865542934214913 		0.5530474040632055  0.7999660355366064 		Uiso   ? 		C 		0.50927
C 1.0  		0.6858120718605349 		0.26965354794386104  0.847053132514155 		Uiso   ? 		C 		0.50927
C 1.0  		0.18946760667614032 		0.898272646972225  0.6688683529679667 		Uiso   ? 		C 		0.54150
C 1.0  		0.1010907511157208 		0.9731082539994113  0.7164700630272371 		Uiso   ? 		C 		0.54150
C 1.0  		0.2733766660627306 		0.8756992835410737  0.753264898370349 		Uiso   ? 		C 		0.54150
C 1.0  		0.8728088937403966 		0.6440769457257828  0.7990654626435931 		Uiso   ? 		C 		0.54150
C 1.0  		0.6934372730398131 		0.35970163902247526  0.8421643082377976 		Uiso   ? 		C 		0.54150
C 1.0  		0.19234348775045657 		0.9856217489449408  0.6701548856722712 		Uiso   ? 		C 		0.54150
C 1.0  		0.1641482931645051 		0.785160467170478  0.7165987162976677 		Uiso   ? 		C 		0.54150
C 1.0  		0.831040948311877 		0.6740111885366572  0.7533935516407795 		Uiso   ? 		C 		0.54150
C 1.0  		0.5921821918808194 		0.7768181372067917  0.7966210505054144 		Uiso   ? 		C 		0.54150
C 1.0  		0.9162502540200198 		0.49636863283933663  0.8410064288039234 		Uiso   ? 		C 		0.54150
C 1.0  		0.4831666011229687 		0.05815094709981353  0.888093525781472 		Uiso   ? 		C 		0.54150
C 1.0  		0.10659351770168568 		0.7554715870055944  0.715569490134224 		Uiso   ? 		C 		0.54150
C 1.0  		0.9386483187940857 		0.9814505839630976  0.758282375917137 		Uiso   ? 		C 		0.54432
C 1.0  		0.535166278898692 		0.7456570811659634  0.7972643168575667 		Uiso   ? 		C 		0.54432
C 1.0  		0.8580908773856439 		0.4671704779664344  0.8421643082377976 		Uiso   ? 		C 		0.54432
C 1.0  		0.5876083695968594 		0.35798410050053986  0.8895087117562072 		Uiso   ? 		C 		0.54432
C 1.0  		0.13484273158971544 		0.812395720875454  0.7109379723987274 		Uiso   ? 		C 		0.54432
C 1.0  		0.8047847854634131 		0.7039454313475317  0.7558379637789583 		Uiso   ? 		C 		0.54432
C 1.0  		0.5637265909953479 		0.8040533909117676  0.7982935430210104 		Uiso   ? 		C 		0.54432
C 1.0  		0.7160629070930006 		0.18991068799685937  0.8471817857845856 		Uiso   ? 		C 		0.54432
C 1.0  		0.2136613114242346 		0.8153400726273433  0.6702835389427017 		Uiso   ? 		C 		0.54432
C 1.0  		0.21179025818961555 		0.052998331534007265  0.7160841032159457 		Uiso   ? 		C 		0.54432
C 1.0  		0.8811680796449786 		0.9544606929041124  0.754937390885945 		Uiso   ? 		C 		0.54432
C 1.0  		0.4784943334706228 		0.7164589262930612  0.7967497037758448 		Uiso   ? 		C 		0.54432
C 1.0  		0.8016314221299043 		0.43797232309353223  0.8429362278603802 		Uiso   ? 		C 		0.53737
C 1.0  		0.301456955581748 		0.06403965060359211  0.6734998707034633 		Uiso   ? 		C 		0.53737
C 1.0  		0.07801523705733326 		0.7824614780645796  0.7066924144745222 		Uiso   ? 		C 		0.53737
C 1.0  		0.9102708735833442 		0.010550593777603298  0.7569958432128324 		Uiso   ? 		C 		0.53737
C 1.0  		0.008822132522547932 		0.7741191481008931  0.7964923972349839 		Uiso   ? 		C 		0.53737
C 1.0  		0.8285728256385249 		0.49440573167141044  0.8458952530802809 		Uiso   ? 		C 		0.53737
C 1.0  		0.15542971962210586 		0.7898223574443027  0.672341991269589 		Uiso   ? 		C 		0.53737
C 1.0  		0.10663249022200566 		0.8401216998724115  0.7037333892546215 		Uiso   ? 		C 		0.53737
C 1.0  		0.7798693023397907 		0.7348611247423693  0.7603408282440244 		Uiso   ? 		C 		0.53737
C 1.0  		0.037316705928339466 		0.8315340072627343  0.7966210505054144 		Uiso   ? 		C 		0.53737
C 1.0  		0.6844111559997381 		0.21542840317989992  0.8474390923254465 		Uiso   ? 		C 		0.53737
C 1.0  		0.18661212895446908 		0.8445382275002454  0.6651374081254833 		Uiso   ? 		C 		0.53737
C 1.0  		0.39250143870903864 		0.6048189223672589  0.9272041199923322 		Uiso   ? 		C 		0.51904
C 1.0  		0.8323888834426421 		0.06600255177151831  0.5407296956192276 		Uiso   ? 		C 		0.51904
C 1.0  		0.43320813451586804 		0.8477279418981255  0.5826706617795577 		Uiso   ? 		C 		0.51904
C 1.0  		0.2670159524186684 		0.06060457355972127  0.6261554671850535 		Uiso   ? 		C 		0.51904
C 1.0  		0.15237889233784477 		0.2890371969771322  0.6718273781878673 		Uiso   ? 		C 		0.51904
C 1.0  		0.42299823407924464 		0.6619884188831093  0.9290052657783587 		Uiso   ? 		C 		0.51904
C 1.0  		0.8602131169860128 		0.12292668564137797  0.5460044797068764 		Uiso   ? 		C 		0.51904
C 1.0  		0.4652821715058293 		0.9046520757679851  0.5797116365596572 		Uiso   ? 		C 		0.51904
C 1.0  		0.2921676241352039 		0.11728334478359015  0.6293717989458152 		Uiso   ? 		C 		0.51904
C 1.0  		0.18062810622587458 		0.3459613308469919  0.6701548856722712 		Uiso   ? 		C 		0.51904
C 1.0  		0.47608229160229676 		0.6011384826773973  0.9324789040799812 		Uiso   ? 		C 		0.51904
C 1.0  		0.9211704296540648 		0.07017371675336147  0.5390572031036316 		Uiso   ? 		C 		0.51904
C 1.0  		0.5161427192692896 		0.8423299636863284  0.5843431542951537 		Uiso   ? 		C 		0.51879
C 1.0  		0.35623127659759807 		0.06649327706349986  0.6307869849205501 		Uiso   ? 		C 		0.51879
C 1.0  		0.2379466930957809 		0.2880557463931691  0.6669385539115097 		Uiso   ? 		C 		0.51879
C 1.0  		0.4204246535907067 		0.5743939542644029  0.9263035470993191 		Uiso   ? 		C 		0.51879
C 1.0  		0.8638522160861591 		0.0392580233585239  0.5363554844245918 		Uiso   ? 		C 		0.51879
C 1.0  		0.4585814673295816 		0.8173029737952695  0.5884600589489285 		Uiso   ? 		C 		0.51879
C 1.0  		0.29844641571675334 		0.03336931985474532  0.6276993064302191 		Uiso   ? 		C 		0.51879
C 1.0  		0.1820108262209969 		0.2603297673962116  0.672856604351311 		Uiso   ? 		C 		0.51879
C 1.0  		0.3623069439246109 		0.5474040632054176  0.923473175149849 		Uiso   ? 		C 		0.51879
C 1.0  		0.806330309968772 		0.01005986848562175  0.5339110722864131 		Uiso   ? 		C 		0.51879
C 1.0  		0.4009128097307293 		0.7890862695063304  0.5851150739177365 		Uiso   ? 		C 		0.51879
C 1.0  		0.24064628073617214 		0.0031897143978800667  0.6240970148581662 		Uiso   ? 		C 		0.51879
C 1.0  		0.123426469241962 		0.23113161252330947  0.6734998707034633 		Uiso   ? 		C 		0.54959
C 1.0  		0.5599256122980226 		0.577583668662283  0.9326075573504116 		Uiso   ? 		C 		0.54959
C 1.0  		0.9990681808554931 		0.03557758366866228  0.5375133638584659 		Uiso   ? 		C 		0.54959
C 1.0  		0.5950219085417646 		0.8096967317695555  0.583828541213432 		Uiso   ? 		C 		0.54959
C 1.0  		0.43733629677562436 		0.041711649818431645  0.6230677886947226 		Uiso   ? 		C 		0.54959
C 1.0  		0.5612717945777733 		0.526302875650211  0.882175475341671 		Uiso   ? 		C 		0.54959
C 1.0  		0.53105382869074 		0.6065364608891942  0.9332508237025638 		Uiso   ? 		C 		0.54959
C 1.0  		0.971692626077365 		0.06624791441750909  0.5391858563740619 		Uiso   ? 		C 		0.54959
C 1.0  		0.5679486543494148 		0.8401216998724115  0.5822847019682663 		Uiso   ? 		C 		0.54959
C 1.0  		0.40760575485617573 		0.06894690352340761  0.6252548942920404 		Uiso   ? 		C 		0.54959
C 1.0  		0.5333157103506732 		0.5562371184610855  0.8843625809389887 		Uiso   ? 		C 		0.54959
C 1.0  		0.30831587098523516 		0.49636863283933663  0.9268181601810409 		Uiso   ? 		C 		0.54959
C 1.0  		0.7555053750076257 		0.9564235940720386  0.5301801274439297 		Uiso   ? 		C 		0.53253
C 1.0  		0.531161153015929 		0.07041907939935224  0.581641435616114 		Uiso   ? 		C 		0.53253
C 1.0  		0.3561481699790159 		0.2873196584551968  0.623196441965153 		Uiso   ? 		C 		0.53253
C 1.0  		0.070602931677419 		0.17690646775934832  0.6732425641626023 		Uiso   ? 		C 		0.53253
C 1.0  		0.2804587680964322 		0.43895377367749533  0.9273327732627628 		Uiso   ? 		C 		0.53253
C 1.0  		0.8868555149767938 		0.2335852389832172  0.5438173741095585 		Uiso   ? 		C 		0.53253
C 1.0  		0.49954496571605894 		0.01398567082147414  0.5807408627231009 		Uiso   ? 		C 		0.53253
C 1.0  		0.32659994333442466 		0.231622337815291  0.6298864120275369 		Uiso   ? 		C 		0.53253
C 1.0  		0.04542718823829918 		0.12145450976543332  0.6710554585652845 		Uiso   ? 		C 		0.53253
C 1.0  		0.754516031901755 		0.46103641181666505  0.9278473863444846 		Uiso   ? 		C 		0.53253
C 1.0  		0.6987588932658442 		0.9245264500932379  0.5333964592046913 		Uiso   ? 		C 		0.53253
C 1.0  		0.47210367224706656 		0.043674550986357835  0.5795829832892267 		Uiso   ? 		C 		0.53253
C 1.0  		0.2987248718979253 		0.2595936794582393  0.6234537485060139 		Uiso   ? 		C 		0.52699
C 1.0  		0.01441290766202541 		0.14697222494847384  0.6716987249174368 		Uiso   ? 		C 		0.52699
C 1.0  		0.9165087938095365 		0.7127784866031995  0.931835637727829 		Uiso   ? 		C 		0.52699
C 1.0  		0.857053131191593 		0.17567965452939446  0.5440746806504195 		Uiso   ? 		C 		0.52699
C 1.0  		0.4691672307437161 		0.9578957699479832  0.581898742156975 		Uiso   ? 		C 		0.52699
C 1.0  		0.2963485074819804 		0.17494356659142213  0.6324594774361462 		Uiso   ? 		C 		0.52699
C 1.0  		0.17481963032720377 		0.3972421238590637  0.674014483785185 		Uiso   ? 		C 		0.52699
C 1.0  		0.7237169359457708 		0.40411227794680543  0.9338940900547162 		Uiso   ? 		C 		0.52699
C 1.0  		0.8304705960347665 		0.20708607321621358  0.5445892937321413 		Uiso   ? 		C 		0.52699
C 1.0  		0.4418814863790366 		0.9883207380508391  0.5813841290752532 		Uiso   ? 		C 		0.52699
C 1.0  		0.2692993250122148 		0.20414172146432427  0.6297577587571065 		Uiso   ? 		C 		0.52699
C 1.0  		0.15221746737662195 		0.42938463048385517  0.6687396996975362 		Uiso   ? 		C 		0.52699
C 1.0  		0.6963325835447947 		0.43306507017371676  0.9278473863444846 		Uiso   ? 		C 		0.52765
C 1.0  		0.6428864439359653 		0.8914024928844834  0.5357122180724395 		Uiso   ? 		C 		0.52765
C 1.0  		0.4168557404803991 		0.019874374325252724  0.5815127823456836 		Uiso   ? 		C 		0.52765
C 1.0  		0.24328852168151255 		0.2345666895671803  0.6256408541033318 		Uiso   ? 		C 		0.52765
C 1.0  		0.9578488694524926 		0.11335754244773777  0.6701548856722712 		Uiso   ? 		C 		0.52765
C 1.0  		0.4487965472376173 		0.6315634507802532  0.9327362106208421 		Uiso   ? 		C 		0.52765
C 1.0  		0.889731168733132 		0.09569143193640202  0.5431741077574063 		Uiso   ? 		C 		0.52765
C 1.0  		0.4902305239748839 		0.8742271076651291  0.5843431542951537 		Uiso   ? 		C 		0.52765
C 1.0  		0.3238763162964828 		0.09102954166257729  0.6298864120275369 		Uiso   ? 		C 		0.52765
C 1.0  		0.21075075914455016 		0.3182353518500344  0.6702835389427017 		Uiso   ? 		C 		0.52765
C 1.0  		0.6454842421311102 		0.6637059574050447  0.9308064115643853 		Uiso   ? 		C 		0.52765
C 1.0  		0.5881182907450703 		0.1197369712434979  0.5336537657455521 		Uiso   ? 		C 		0.52765
C 1.0  		0.681520309477619 		0.8955736578663265  0.579968943100518 		Uiso   ? 		C 		0.54782
C 1.0  		0.5208445611991289 		0.13053292766709199  0.6211379896382656 		Uiso   ? 		C 		0.54782
C 1.0  		0.6476146464093147 		0.6114437138090097  0.8828187416938232 		Uiso   ? 		C 		0.54782
C 1.0  		0.6186326490359384 		0.6070271861811759  0.9300344919418024 		Uiso   ? 		C 		0.54782
C 1.0  		0.559958887270489 		0.06256747472764747  0.5332678059342607 		Uiso   ? 		C 		0.54782
C 1.0  		0.6537289452796804 		0.8391402492884483  0.5825420085091273 		Uiso   ? 		C 		0.54782
C 1.0  		0.49599519006837156 		0.07360879379723231  0.6222958690721397 		Uiso   ? 		C 		0.54782
C 1.0  		0.6188506417631772 		0.5547649425851409  0.8819181688008101 		Uiso   ? 		C 		0.54782
C 1.0  		0.5900482652166982 		0.5498576896653254  0.9314496779165375 		Uiso   ? 		C 		0.54782
C 1.0  		0.534561856036192 		0.005397978211797036  0.5315953134186647 		Uiso   ? 		C 		0.54782
C 1.0  		0.6243515418391385 		0.7812346648346257  0.581898742156975 		Uiso   ? 		C 		0.54782
C 1.0  		0.468742688351125 		0.01570320934340956  0.6255122008329013 		Uiso   ? 		C 		0.54782
C 1.0  		0.5908227156703246 		0.49955834723721665  0.8810175959077967 		Uiso   ? 		C 		0.56874
C 1.0  		0.5887553556350245 		0.6352438904701149  0.9311923713756767 		Uiso   ? 		C 		0.56874
C 1.0  		0.029741774347244992 		0.09348316812248504  0.5386712432923402 		Uiso   ? 		C 		0.56874
C 1.0  		0.6241210831191125 		0.8666208656394151  0.5808695159935313 		Uiso   ? 		C 		0.56874
C 1.0  		0.4648012886652005 		0.09961723427225441  0.6210093363678352 		Uiso   ? 		C 		0.56874
C 1.0  		0.5906732697408994 		0.5829816468740799  0.8865496865363066 		Uiso   ? 		C 		0.56874
C 1.0  		0.6452803222636505 		0.44018058690744927  0.9293912255896501 		Uiso   ? 		C 		0.56874
C 1.0  		0.5901648094756575 		0.8926293061144371  0.534425685368135 		Uiso   ? 		C 		0.56874
C 1.0  		0.3628415697404184 		0.017666110511335754  0.5858869935403194 		Uiso   ? 		C 		0.56874
C 1.0  		0.6872703020913489 		0.23432132692118954  0.6304010251092589 		Uiso   ? 		C 		0.56874
C 1.0  		0.41426430510315365 		0.1302875650211012  0.6702835389427017 		Uiso   ? 		C 		0.56874
C 1.0  		0.5884768994538526 		0.4090195308666209  0.9287479592374979 		Uiso   ? 		C 		0.56874
C 1.0  		0.6953749898783541 		0.20463244675630582  0.5443319871912804 		Uiso   ? 		C 		0.54281
C 1.0  		0.30833025249694757 		0.9851310236529591  0.5825420085091273 		Uiso   ? 		C 		0.54281
C 1.0  		0.6312862917713964 		0.20904897438413977  0.6276993064302191 		Uiso   ? 		C 		0.54281
C 1.0  		0.515621484359327 		0.4205515752281873  0.6700262324018408 		Uiso   ? 		C 		0.54281
C 1.0  		0.6164566821015365 		0.4666797526744529  0.9306777582939547 		Uiso   ? 		C 		0.54281
C 1.0  		0.562846195765546 		0.9225635489253117  0.529150901280486 		Uiso   ? 		C 		0.54281
C 1.0  		0.3304537400938709 		0.041711649818431645  0.5840858477542928 		Uiso   ? 		C 		0.54281
C 1.0  		0.4927114859430242 		0.9318873294729612  0.6295004522162455 		Uiso   ? 		C 		0.54281
C 1.0  		0.6174764920729247 		0.4168711355383257  0.8873216061588894 		Uiso   ? 		C 		0.54281
C 1.0  		0.6961500086269257 		0.7174403768770243  0.9263035470993191 		Uiso   ? 		C 		0.54281
C 1.0  		0.6400261289294307 		0.17298066542349594  0.5391858563740619 		Uiso   ? 		C 		0.54281
C 1.0  		0.25136248295998875 		0.951516341152223  0.5834425814021406 		Uiso   ? 		C 		0.54281
C 1.0  		0.5732014514507326 		0.18254980861713613  0.6230677886947226 		Uiso   ? 		C 		0.54591
C 1.0  		0.7038051573856978 		0.6651781332809893  0.8848771940207106 		Uiso   ? 		C 		0.54591
C 1.0  		0.5594495667422569 		0.43723623515556  0.9277187330740542 		Uiso   ? 		C 		0.54591
C 1.0  		0.663445009921898 		0.22916871135538328  0.5416302685122407 		Uiso   ? 		C 		0.54591
C 1.0  		0.7670349021875453 		0.007115516733732457  0.5790683702075049 		Uiso   ? 		C 		0.54591
C 1.0  		0.603297338198864 		0.2384924919030327  0.6284712260528018 		Uiso   ? 		C 		0.54591
C 1.0  		0.5594638669200139 		0.38669153008146046  0.8883508323223331 		Uiso   ? 		C 		0.54591
C 1.0  		0.5876418395622702 		0.4948964569633919  0.9292625723192196 		Uiso   ? 		C 		0.54591
C 1.0  		0.5366229022625142 		0.9529885170281677  0.5292795545509165 		Uiso   ? 		C 		0.54591
C 1.0  		0.7990432004866422 		0.06305820001962902  0.5856296869994583 		Uiso   ? 		C 		0.54591
C 1.0  		0.46755064330164003 		0.9623122975758172  0.6258981606441927 		Uiso   ? 		C 		0.54591
C 1.0  		0.587745950153476 		0.44410638924330165  0.8842339276685584 		Uiso   ? 		C 		0.54591
C 1.0  		0.0792054155968149 		0.27995877907547356  0.7150548770525021 		Uiso   ? 		C 		0.53541
C 1.0  		0.23989186033318982 		0.17592501717538522  0.753264898370349 		Uiso   ? 		C 		0.53541
C 1.0  		0.8421221867124428 		0.9409657473746198  0.8000946888070368 		Uiso   ? 		C 		0.53541
C 1.0  		0.6598326446672622 		0.6558543527333399  0.8429362278603802 		Uiso   ? 		C 		0.53541
C 1.0  		0.38939828032364626 		0.5442143488075376  0.8812749024486577 		Uiso   ? 		C 		0.53541
C 1.0  		0.11007025024366343 		0.33786436352929633  0.7160841032159457 		Uiso   ? 		C 		0.53541
C 1.0  		0.2655254534624009 		0.23186770046128177  0.7589256422692893 		Uiso   ? 		C 		0.53541
C 1.0  		0.8670942376020809 		0.9981352438904701  0.7999660355366064 		Uiso   ? 		C 		0.53541
C 1.0  		0.688473969554519 		0.7122877613112181  0.8443514138351154 		Uiso   ? 		C 		0.53541
C 1.0  		0.41477123983535924 		0.6026106585533418  0.8817895155303795 		Uiso   ? 		C 		0.53541
C 1.0  		0.1641269482149145 		0.277259789969575  0.7178852490019723 		Uiso   ? 		C 		0.53541
C 1.0  		0.3286734065446126 		0.1800961821572284  0.7573818030241237 		Uiso   ? 		C 		0.53541
C 1.0  		0.9287218901325538 		0.9458730002944352  0.8013812215113415 		Uiso   ? 		C 		0.53731
C 1.0  		0.7444518766995836 		0.6534007262734322  0.843965454023824 		Uiso   ? 		C 		0.53731
C 1.0  		0.478924702711202 		0.5515752281872609  0.8843625809389887 		Uiso   ? 		C 		0.53731
C 1.0  		0.10664670906580737 		0.25026989891058987  0.7167273695680981 		Uiso   ? 		C 		0.53731
C 1.0  		0.2721153432525764 		0.1494258514083816  0.7539081647225013 		Uiso   ? 		C 		0.53731
C 1.0  		0.8728670360483705 		0.9161841201295515  0.8056267794355466 		Uiso   ? 		C 		0.53731
C 1.0  		0.6875433693766007 		0.6254293846304839  0.8417783484265062 		Uiso   ? 		C 		0.53731
C 1.0  		0.4224893191780467 		0.5211502600844048  0.8856491136432935 		Uiso   ? 		C 		0.53731
C 1.0  		0.049836809779120965 		0.22377073314358625  0.7145402639707803 		Uiso   ? 		C 		0.53731
C 1.0  		0.2142494695811309 		0.11826479536755324  0.7522356722069053 		Uiso   ? 		C 		0.53731
C 1.0  		0.8151807832038223 		0.8845323387967416  0.8038256336495202 		Uiso   ? 		C 		0.53731
C 1.0  		0.6303084897452552 		0.5989302188634802  0.8429362278603802 		Uiso   ? 		C 		0.53731
C 1.0  		0.3657340398134174 		0.4875355775836687  0.8846198874798498 		Uiso   ? 		C 		0.54368
C 1.0  		0.24530418356069367 		0.24879772303464523  0.7123531583734625 		Uiso   ? 		C 		0.54368
C 1.0  		0.41114965464695324 		0.1504073019923447  0.7567385366719714 		Uiso   ? 		C 		0.54368
C 1.0  		0.008840328388222463 		0.9139758563156346  0.801252568240911 		Uiso   ? 		C 		0.54368
C 1.0  		0.8269216483250358 		0.6283737363823731  0.8415210418856454 		Uiso   ? 		C 		0.54368
C 1.0  		0.3176276996124055 		0.25787614093630384  0.6689970062383971 		Uiso   ? 		C 		0.54368
C 1.0  		0.21728236064272913 		0.2777505152615566  0.7126104649143233 		Uiso   ? 		C 		0.54368
C 1.0  		0.38331625017873394 		0.18058690744920994  0.7562239235902497 		Uiso   ? 		C 		0.54368
C 1.0  		0.9834874135255559 		0.9466090882324076  0.8004806486183282 		Uiso   ? 		C 		0.54368
C 1.0  		0.7947222371282336 		0.653646088919423  0.8413923886152148 		Uiso   ? 		C 		0.54368
C 1.0  		0.29149421652282237 		0.2880557463931691  0.6648801015846224 		Uiso   ? 		C 		0.54368
C 1.0  		0.9956930104407834 		0.17077240160957896  0.7150548770525021 		Uiso   ? 		C 		0.54368
C 1.0  		0.16385313432566137 		0.06379428795760134  0.7572531497536933 		Uiso   ? 		C 		0.52750
C 1.0  		0.9296719843912047 		0.16537442339778194  0.8033110205677984 		Uiso   ? 		C 		0.52750
C 1.0  		0.7499527767755452 		0.879870448522917  0.847310439055016 		Uiso   ? 		C 		0.52750
C 1.0  		0.3150442015950176 		0.43502797134164295  0.8871929528884589 		Uiso   ? 		C 		0.52750
C 1.0  		0.9671414959669755 		0.11409363038571009  0.7132537312664756 		Uiso   ? 		C 		0.52750
C 1.0  		0.29866523638194864 		0.3427716164491118  0.7533935516407795 		Uiso   ? 		C 		0.52750
C 1.0  		0.900752430640754 		0.10795956423594073  0.8024104476747851 		Uiso   ? 		C 		0.52750
C 1.0  		0.718336589475675 		0.8234370399450388  0.8460239063507113 		Uiso   ? 		C 		0.52750
C 1.0  		0.28388586398523874 		0.3790852880557464  0.8847485407502801 		Uiso   ? 		C 		0.52750
C 1.0  		0.4340129381760229 		0.1396113455687506  0.7100373995057142 		Uiso   ? 		C 		0.52750
C 1.0  		0.1069774963481106 		0.03631367160663461  0.7596975618918721 		Uiso   ? 		C 		0.52750
C 1.0  		0.8729518955179669 		0.1386298949847875  0.8016385280522024 		Uiso   ? 		C 		0.52750
C 1.0  		0.6923586554904051 		0.8543527333398765  0.8440941072942545 		Uiso   ? 		C 		0.53797
C 1.0  		0.25876668831213473 		0.4117185199725194  0.8871929528884589 		Uiso   ? 		C 		0.53797
C 1.0  		0.6061964307327741 		0.38963588183334974  0.7132537312664756 		Uiso   ? 		C 		0.53797
C 1.0  		0.26631297052879344 		0.2848660319952891  0.754937390885945 		Uiso   ? 		C 		0.53797
C 1.0  		0.8695940930309753 		0.05201688095004417  0.7967497037758448 		Uiso   ? 		C 		0.53797
C 1.0  		0.6877171143465882 		0.7660221807831976  0.8438368007533936 		Uiso   ? 		C 		0.53797
C 1.0  		0.4124852864528417 		0.6541368142114045  0.8824327818825318 		Uiso   ? 		C 		0.53797
C 1.0  		0.4067275671133442 		0.08121503582294633  0.7095227864239922 		Uiso   ? 		C 		0.53797
C 1.0  		0.24140628502801892 		0.31749926391206207  0.754680084345084 		Uiso   ? 		C 		0.53797
C 1.0  		0.844433250389591 		0.0824418490529002  0.7954631710715402 		Uiso   ? 		C 		0.53797
C 1.0  		0.6604883110499253 		0.7957110609480813  0.8431935344012413 		Uiso   ? 		C 		0.53797
C 1.0  		0.38488844387953625 		0.6830896064383158  0.8835906613164061 		Uiso   ? 		C 		0.53797
C 1.0  		0.37787985522864576 		0.10894101481990383  0.7133823845369062 		Uiso   ? 		C 		0.56669
C 1.0  		0.05044582592461811 		0.010795956423594072  0.7620133207596204 		Uiso   ? 		C 		0.56669
C 1.0  		0.8165910482985239 		0.11090391598783003  0.7997087289957455 		Uiso   ? 		C 		0.56669
C 1.0  		0.6352793249633726 		0.8285896555108451  0.8424216147786585 		Uiso   ? 		C 		0.56669
C 1.0  		0.20279147561503005 		0.38816370595740507  0.8853918071024324 		Uiso   ? 		C 		0.56669
C 1.0  		0.1359255044700526 		0.30670330748846797  0.7162127564863763 		Uiso   ? 		C 		0.56669
C 1.0  		0.29818271434929444 		0.20708607321621358  0.7576391095649847 		Uiso   ? 		C 		0.56669
C 1.0  		0.8976506684882636 		0.9721268034154481  0.8007379551591891 		Uiso   ? 		C 		0.56669
C 1.0  		0.7162504329547218 		0.6828442437923251  0.8421643082377976 		Uiso   ? 		C 		0.56669
C 1.0  		0.4475183111357014 		0.577583668662283  0.8842339276685584 		Uiso   ? 		C 		0.56669
C 1.0  		0.3328562377353478 		0.33295711060948086  0.7120958518326015 		Uiso   ? 		C 		0.56669
C 1.0  		0.9951028231059733 		0.23333987633722644  0.7559666170493887 		Uiso   ? 		C 		0.56669
C 1.0  		0.09742196407909198 		0.9976445185984886  0.8056267794355466 		Uiso   ? 		C 		0.56826
C 1.0  		0.9093674618868927 		0.7171950142310335  0.8399772026404797 		Uiso   ? 		C 		0.56826
C 1.0  		0.4043209954748936 		0.3403179899892041  0.6705408454835626 		Uiso   ? 		C 		0.56826
C 1.0  		0.3020571417793636 		0.2760329767396212  0.7110666256691579 		Uiso   ? 		C 		0.56826
C 1.0  		0.9667637988044948 		0.17666110511335756  0.7604694815144548 		Uiso   ? 		C 		0.56826
C 1.0  		0.0667784172274209 		0.9414564726666014  0.8007379551591891 		Uiso   ? 		C 		0.56826
C 1.0  		0.8842486595157893 		0.6610069682991462  0.841135082074354 		Uiso   ? 		C 		0.56826
C 1.0  		0.3748056381757344 		0.2851113946412798  0.6705408454835626 		Uiso   ? 		C 		0.56826
C 1.0  		0.27362830706443647 		0.2195995681617431  0.7111952789395882 		Uiso   ? 		C 		0.56826
C 1.0  		0.9380567352263737 		0.11924624595151635  0.7576391095649847 		Uiso   ? 		C 		0.56826
C 1.0  		0.03691909237420343 		0.8842869761507509  0.797907583209719 		Uiso   ? 		C 		0.56826
C 1.0  		0.859252536903567 		0.6050642850132497  0.8419070016969366 		Uiso   ? 		C 		0.56826
C 1.0  		0.3448893722545006 		0.22867798606340173  0.6732425641626023 		Uiso   ? 		C 		0.56985
C 1.0  		0.27419086796571207 		0.3057218569045049  0.7111952789395882 		Uiso   ? 		C 		0.56985
C 1.0  		0.4388840777768753 		0.20757679850819513  0.753264898370349 		Uiso   ? 		C 		0.56985
C 1.0  		0.041069914482496805 		0.9716360781234665  0.8018958345930632 		Uiso   ? 		C 		0.56985
C 1.0  		0.8517140783877767 		0.6860339581902052  0.8377900970431619 		Uiso   ? 		C 		0.56985
C 1.0  		0.3487050244315836 		0.3157817253901266  0.6668099006410793 		Uiso   ? 		C 		0.56985
C 1.0  		0.3249040636277285 		0.10795956423594073  0.718914475165416 		Uiso   ? 		C 		0.56985
C 1.0  		0.9946535437207517 		0.009323780547649426  0.7617560142187595 		Uiso   ? 		C 		0.56985
C 1.0  		0.7605329886258487 		0.10673275100598685  0.8031823672973679 		Uiso   ? 		C 		0.56985
C 1.0  		0.07915087700871315 		0.8263813916969281  0.8435794942125326 		Uiso   ? 		C 		0.56985
C 1.0  		0.645196014405111 		0.38816370595740507  0.8918244706239555 		Uiso   ? 		C 		0.56985
C 1.0  		0.2681511054090586 		0.08072431053096478  0.7162127564863763 		Uiso   ? 		C 		0.56985
C 1.0  		0.1041288360802948 		0.3157817253901266  0.7572531497536933 		Uiso   ? 		C 		0.55559
C 1.0  		0.7037471610617467 		0.07900677200902935  0.8053694728946857 		Uiso   ? 		C 		0.55559
C 1.0  		0.022879840202718826 		0.7984100500539798  0.8390766297474666 		Uiso   ? 		C 		0.55559
C 1.0  		0.7601900763277252 		0.691677299047993  0.8864210332658761 		Uiso   ? 		C 		0.55559
C 1.0  		0.2984594823295193 		0.13666699381686134  0.7124818116438929 		Uiso   ? 		C 		0.55559
C 1.0  		0.9672779889426237 		0.03999411129649623  0.7605981347848852 		Uiso   ? 		C 		0.55559
C 1.0  		0.7318736951908956 		0.13568554323289825  0.8025391009452156 		Uiso   ? 		C 		0.55559
C 1.0  		0.8863970323416902 		0.5233585238983217  0.839462589558758 		Uiso   ? 		C 		0.55559
C 1.0  		0.3818195343885897 		0.15506919226616941  0.6710554585652845 		Uiso   ? 		C 		0.55559
C 1.0  		0.3860718862991177 		0.38669153008146046  0.7096514396944228 		Uiso   ? 		C 		0.55559
C 1.0  		0.048249910273527305 		0.2873196584551968  0.7557093105085277 		Uiso   ? 		C 		0.55559
C 1.0  		0.6470182745656611 		0.05054470507409952  0.8033110205677984 		Uiso   ? 		C 		0.55559
C 1.0  		0.965132992518617 		0.7709294337030131  0.8380474035840229 		Uiso   ? 		C 		0.53611
C 1.0  		0.45741396427978254 		0.3938070468151929  0.6689970062383971 		Uiso   ? 		C 		0.53611
C 1.0  		0.24121580507532597 		0.10845028952792228  0.7083649069901182 		Uiso   ? 		C 		0.53611
C 1.0  		0.07388350340273839 		0.3432623417410934  0.7567385366719714 		Uiso   ? 		C 		0.53611
C 1.0  		0.17170512585502604 		0.10329767396211602  0.8015098747817719 		Uiso   ? 		C 		0.53611
C 1.0  		0.9935530296106962 		0.8256453037589558  0.8438368007533936 		Uiso   ? 		C 		0.53611
C 1.0  		0.3243041047480909 		0.12120914711944254  0.6719560314582976 		Uiso   ? 		C 		0.53611
C 1.0  		0.27082977041078166 		0.16512906075179118  0.7084935602605485 		Uiso   ? 		C 		0.53611
C 1.0  		0.9397380874373347 		0.06821081558543529  0.7589256422692893 		Uiso   ? 		C 		0.53611
C 1.0  		0.199562228743829 		0.16071253312395722  0.7991941159140236 		Uiso   ? 		C 		0.53611
C 1.0  		0.8566993597676738 		0.5510845028952792  0.8426789213195194 		Uiso   ? 		C 		0.53611
C 1.0  		0.3480012146037519 		0.17837864363529296  0.6701548856722712 		Uiso   ? 		C 		0.53611
N 1.0  		0.528735720241758 		0.9066149769359113  0.9341513965955772 		Uiso   ? 		N 		-0.45799
N 1.0  		0.9715739556653905 		0.3690254195701247  0.5371274040471745 		Uiso   ? 		N 		-0.45799
N 1.0  		0.582817642166629 		0.15163411522229855  0.5795829832892267 		Uiso   ? 		N 		-0.45799
N 1.0  		0.4058024371653014 		0.36878005692413385  0.6255122008329013 		Uiso   ? 		N 		-0.45799
N 1.0  		0.2953054537259647 		0.5876435371479046  0.6709268052948539 		Uiso   ? 		N 		-0.45799
N 1.0  		0.5583256138546293 		0.9645205613897341  0.9376250348971996 		Uiso   ? 		N 		-0.45799
N 1.0  		0.0010624185366140404 		0.42668564137795667  0.5390572031036316 		Uiso   ? 		N 		-0.45799
N 1.0  		0.6108960328506093 		0.2107665129060752  0.5817700888865446 		Uiso   ? 		N 		-0.45799
N 1.0  		0.4339706382627305 		0.42766709196191977  0.6261554671850535 		Uiso   ? 		N 		-0.45799
N 1.0  		0.32322829530563196 		0.646039846893709  0.6719560314582976 		Uiso   ? 		N 		-0.45799
N 1.0  		0.500659650703737 		0.8538620080478948  0.924888361124584 		Uiso   ? 		N 		-0.45799
N 1.0  		0.9433576111227928 		0.3125920109922466  0.5303087807143602 		Uiso   ? 		N 		-0.45799
N 1.0  		0.7172705025691216 		0.4315928942977721  0.5934775364957166 		Uiso   ? 		N 		-0.47296
N 1.0  		0.3843705040375124 		0.3152910000981451  0.6168924317140604 		Uiso   ? 		N 		-0.47296
N 1.0  		0.2712731739390932 		0.5302286779860634  0.6669385539115097 		Uiso   ? 		N 		-0.47296
N 1.0  		0.616143717382907 		0.9093139660418098  0.9286193059670673 		Uiso   ? 		N 		-0.47296
N 1.0  		0.05808750244359001 		0.3707429580920601  0.5279930218466119 		Uiso   ? 		N 		-0.47296
N 1.0  		0.6686308024423269 		0.151143389930317  0.5857583402698888 		Uiso   ? 		N 		-0.47296
N 1.0  		0.4941830747546494 		0.3717244086760232  0.6240970148581662 		Uiso   ? 		N 		-0.47296
N 1.0  		0.38295881038487534 		0.5908332515457847  0.6736285239738936 		Uiso   ? 		N 		-0.47296
N 1.0  		0.5872960054982086 		0.9370399450387673  0.932993517161703 		Uiso   ? 		N 		-0.47296
N 1.0  		0.02920692121345944 		0.3979782117970361  0.5360981778837309 		Uiso   ? 		N 		-0.47296
N 1.0  		0.6380590974564079 		0.1800961821572284  0.581641435616114 		Uiso   ? 		N 		-0.47296
N 1.0  		0.46344702304156954 		0.3982235744430268  0.6253835475624708 		Uiso   ? 		N 		-0.47296
N 1.0  		0.3530486476385293 		0.6185592305427422  0.6705408454835626 		Uiso   ? 		N 		-0.47565
N 1.0  		0.5593819615413892 		0.8803611738148985  0.9277187330740542 		Uiso   ? 		N 		-0.47565
N 1.0  		0.9989911774117987 		0.3405633526351948  0.5300514741734993 		Uiso   ? 		N 		-0.47565
N 1.0  		0.61148573322443 		0.12439886151732261  0.586658913162902 		Uiso   ? 		N 		-0.47565
N 1.0  		0.43525475022155624 		0.3405633526351948  0.6257695073737621 		Uiso   ? 		N 		-0.47565
N 1.0  		0.3271039563006921 		0.561144371380901  0.6725992978104499 		Uiso   ? 		N 		-0.47565
N 1.0  		0.7230410612034072 		0.8825694376288155  0.9345373564068686 		Uiso   ? 		N 		-0.47565
N 1.0  		0.16713381970996977 		0.3427716164491118  0.5421448815939626 		Uiso   ? 		N 		-0.47565
N 1.0  		0.7728532632900323 		0.1177740700755717  0.5851150739177365 		Uiso   ? 		N 		-0.47565
N 1.0  		0.6020947259916287 		0.3474335067229365  0.6279566129710801 		Uiso   ? 		N 		-0.47565
N 1.0  		0.7294694123733708 		0.8278535675728728  0.8843625809389887 		Uiso   ? 		N 		-0.47565
N 1.0  		0.697455238217364 		0.9129944057316715  0.931321024646107 		Uiso   ? 		N 		-0.47565
N 1.0  		0.13931568934148686 		0.3700068701540878  0.5328818461229694 		Uiso   ? 		N 		-0.46577
N 1.0  		0.7457142704068181 		0.14721758759446463  0.5865302598924717 		Uiso   ? 		N 		-0.46577
N 1.0  		0.5735974581378771 		0.3724604966139955  0.6224245223425702 		Uiso   ? 		N 		-0.46577
N 1.0  		0.6965996613141476 		0.852635194817941  0.8874502594293198 		Uiso   ? 		N 		-0.46577
N 1.0  		0.6158891869402967 		0.9959269800765532  0.9358238891111732 		Uiso   ? 		N 		-0.46577
N 1.0  		0.05970371658366541 		0.4551477083128865  0.5371274040471745 		Uiso   ? 		N 		-0.46577
N 1.0  		0.6681397101048028 		0.23898321719501425  0.5853723804585974 		Uiso   ? 		N 		-0.46577
N 1.0  		0.49134579289865266 		0.45784669741878503  0.6269273868076364 		Uiso   ? 		N 		-0.46577
N 1.0  		0.3807830707684514 		0.6757287270585927  0.6763302426529333 		Uiso   ? 		N 		-0.46577
N 1.0  		0.09244898602407153 		0.020855824909215823  0.9435430853370008 		Uiso   ? 		N 		-0.46577
N 1.0  		0.0339118799021812 		0.4809107861419178  0.545618519895585 		Uiso   ? 		N 		-0.46577
N 1.0  		0.639103579770359 		0.2654823829620179  0.5776531842327698 		Uiso   ? 		N 		-0.46577
N 1.0  		0.4563992835613029 		0.4801746982039455  0.6237110550468749 		Uiso   ? 		N 		-0.46270
N 1.0  		0.35302188146798497 		0.7022278928255963  0.6780027351685293 		Uiso   ? 		N 		-0.46270
N 1.0  		0.9454163685281896 		0.8271174796349005  0.9364671554633255 		Uiso   ? 		N 		-0.46270
N 1.0  		0.8890670457045879 		0.2919815487290215  0.538928549833201 		Uiso   ? 		N 		-0.46270
N 1.0  		0.6622744067971044 		0.40362155265482386  0.586658913162902 		Uiso   ? 		N 		-0.46270
N 1.0  		0.328099467231518 		0.2873196584551968  0.6204947232861133 		Uiso   ? 		N 		-0.46270
N 1.0  		0.2149651124567375 		0.5128079301207185  0.6687396996975362 		Uiso   ? 		N 		-0.46270
N 1.0  		0.47639080902195174 		0.7976739621160075  0.9306777582939547 		Uiso   ? 		N 		-0.46270
N 1.0  		0.08995245798814963 		0.5942683285896556  0.5402150825375056 		Uiso   ? 		N 		-0.46270
N 1.0  		0.6935909879591564 		0.37785847482579255  0.5840858477542928 		Uiso   ? 		N 		-0.46270
N 1.0  		0.5172766710197224 		0.5896064383158308  0.6319448643544243 		Uiso   ? 		N 		-0.46270
N 1.0  		0.23791124296137767 		0.48262832466385325  0.6777454286276684 		Uiso   ? 		N 		-0.46270
N 1.0  		0.9149524425034157 		0.7704387084110316  0.9349233162181599 		Uiso   ? 		N 		-0.48783
N 1.0  		0.03148198314514766 		0.5635979978408088  0.5400864292670753 		Uiso   ? 		N 		-0.48783
N 1.0  		0.6369102449082393 		0.34694278143095497  0.5827993150499883 		Uiso   ? 		N 		-0.48783
N 1.0  		0.4611371115954568 		0.5635979978408088  0.6295004522162455 		Uiso   ? 		N 		-0.48783
N 1.0  		0.18104440260667481 		0.45686524683482194  0.6729852576217413 		Uiso   ? 		N 		-0.48783
N 1.0  		0.6118921444014138 		0.07336343115124154  0.9354379292998818 		Uiso   ? 		N 		-0.48783
N 1.0  		0.0628314336526318 		0.538325645303759  0.5421448815939626 		Uiso   ? 		N 		-0.48783
N 1.0  		0.6670986365177792 		0.32019825301796057  0.58331392813171 		Uiso   ? 		N 		-0.48783
N 1.0  		0.4863220259594252 		0.5319462165079989  0.6349038895743249 		Uiso   ? 		N 		-0.48783
N 1.0  		0.3814747879054964 		0.7574344881735205  0.6704121922131322 		Uiso   ? 		N 		-0.48783
N 1.0  		0.06263511016806265 		0.043674550986357835  0.9341513965955772 		Uiso   ? 		N 		-0.48783
N 1.0  		0.005570161152742642 		0.506673863970949  0.5391858563740619 		Uiso   ? 		N 		-0.48783
N 1.0  		0.6089545339831399 		0.2880557463931691  0.5834425814021406 		Uiso   ? 		N 		-0.47441
N 1.0  		0.4288505844331659 		0.506673863970949  0.6320735176248549 		Uiso   ? 		N 		-0.47441
N 1.0  		0.3232496725802561 		0.7272548827166553  0.6710554585652845 		Uiso   ? 		N 		-0.47441
N 1.0  		0.8589508369377674 		0.741731278830111  0.9392975274127956 		Uiso   ? 		N 		-0.47441
N 1.0  		0.9737504095607821 		0.5331730297379528  0.5400864292670753 		Uiso   ? 		N 		-0.47441
N 1.0  		0.5779402534068661 		0.3135734615762097  0.5831852748612797 		Uiso   ? 		N 		-0.47441
N 1.0  		0.4028157093798794 		0.538325645303759  0.6297577587571065 		Uiso   ? 		N 		-0.47441
N 1.0  		0.12640107201156375 		0.43257434488173524  0.6643654885029004 		Uiso   ? 		N 		-0.47441
N 1.0  		0.8883611097237414 		0.8001275885759153  0.9404554068466697 		Uiso   ? 		N 		-0.47441
N 1.0  		0.8322242770724695 		0.26499165767003635  0.5418875750531016 		Uiso   ? 		N 		-0.47441
N 1.0  		0.6058959643319656 		0.3724604966139955  0.5847291141064451 		Uiso   ? 		N 		-0.47441
N 1.0  		0.2708645876001725 		0.2608204926881932  0.621266642908696 		Uiso   ? 		N 		-0.47441
N 1.0  		0.15944774944972406 		0.48974384139758564  0.6656520212072051 		Uiso   ? 		N 		-0.52797
N 1.0  		0.6451618791696542 		0.9682010010795957  0.9337654367842858 		Uiso   ? 		N 		-0.52797
N 1.0  		0.08876391864069333 		0.427421729315929  0.53584087134287 		Uiso   ? 		N 		-0.52797
N 1.0  		0.6959731145730219 		0.208803611738149  0.5858869935403194 		Uiso   ? 		N 		-0.52797
N 1.0  		0.5198254655067084 		0.42938463048385517  0.6262841204554841 		Uiso   ? 		N 		-0.52797
N 1.0  		0.40996595258436014 		0.6482481107076259  0.6758156295712116 		Uiso   ? 		N 		-0.52797
N 1.0  		0.7267099618990249 		0.9706546275395035  0.9326075573504116 		Uiso   ? 		N 		-0.52797
N 1.0  		0.166936230335376 		0.42864854254588286  0.5336537657455521 		Uiso   ? 		N 		-0.52797
N 1.0  		0.7772823142615196 		0.20610462263225046  0.5861443000811802 		Uiso   ? 		N 		-0.52797
N 1.0  		0.6013078095452149 		0.43085680635979984  0.6197228036635306 		Uiso   ? 		N 		-0.52797
N 1.0  		0.7234031109641509 		0.9117675925017177  0.888608138863194 		Uiso   ? 		N 		-0.52797
N 1.0  		0.6735693366099571 		0.9434193738345276  0.9257889340175972 		Uiso   ? 		N 		-0.52797
N 1.0  		0.11372986635544367 		0.4004318382569438  0.5263205293310159 		Uiso   ? 		N 		-0.49959
N 1.0  		0.7233005259059815 		0.18058690744920994  0.5939921495774383 		Uiso   ? 		N 		-0.49959
N 1.0  		0.5473237000437173 		0.3989596623809991  0.6276993064302191 		Uiso   ? 		N 		-0.49959
N 1.0  		0.43560224016153126 		0.6217489449406223  0.66423683523247 		Uiso   ? 		N 		-0.49959
N 1.0  		0.750278662122918 		0.8545980959858672  0.9405840601171002 		Uiso   ? 		N 		-0.49959
N 1.0  		0.6876245281512241 		0.30940229659436647  0.5354549115315785 		Uiso   ? 		N 		-0.49959
N 1.0  		0.9660043628075928 		0.4254588281480028  0.5718637870633991 		Uiso   ? 		N 		-0.49959
N 1.0  		0.6313433464984018 		0.32093434095593293  0.6355471559264773 		Uiso   ? 		N 		-0.49959
N 1.0  		0.7634192095399372 		0.8065070173716754  0.8772866510653134 		Uiso   ? 		N 		-0.49959
N 1.0  		0.8108954159638394 		0.9664834625576603  0.9359525423816036 		Uiso   ? 		N 		-0.49959
N 1.0  		0.7497134390987159 		0.42423201491804896  0.5385425900219096 		Uiso   ? 		N 		-0.49959
N 1.0  		0.8605937359144317 		0.20316027088036118  0.5905185112758159 		Uiso   ? 		N 		-0.49959
N 1.0  		0.6876862251701483 		0.43404652075767985  0.6283425727823715 		Uiso   ? 		N 		-0.51414
N 1.0  		0.8113106247636712 		0.9171655707135147  0.8874502594293198 		Uiso   ? 		N 		-0.51414
N 1.0  		0.7538401571593913 		0.9394935714986752  0.9335081302434249 		Uiso   ? 		N 		-0.51414
N 1.0  		0.6904675398801081 		0.3962606732751006  0.5376420171288965 		Uiso   ? 		N 		-0.51414
N 1.0  		0.8038079083503297 		0.17543429188340368  0.5878167925967762 		Uiso   ? 		N 		-0.51414
N 1.0  		0.6299430312575838 		0.40313082736284234  0.6256408541033318 		Uiso   ? 		N 		-0.51414
N 1.0  		0.754588214744474 		0.8840416135047602  0.8874502594293198 		Uiso   ? 		N 		-0.51414
N 1.0  		0.780186130421304 		0.9093139660418098  0.9358238891111732 		Uiso   ? 		N 		-0.51414
N 1.0  		0.7198212449000663 		0.3665717931102169  0.5369987507767442 		Uiso   ? 		N 		-0.51414
N 1.0  		0.8317311232319976 		0.14500932378054765  0.5883314056784981 		Uiso   ? 		N 		-0.51414
N 1.0  		0.6601073511445393 		0.37761311217980176  0.6307869849205501 		Uiso   ? 		N 		-0.51414
N 1.0  		0.7872214039087834 		0.8604867994896458  0.8853918071024324 		Uiso   ? 		N 		-0.51414
N 1.0  		0.7836425409445922 		0.997399155952498  0.9332508237025638 		Uiso   ? 		N 		-0.38082
N 1.0  		0.7214791260084219 		0.4531848071449603  0.5408583488896579 		Uiso   ? 		N 		-0.38082
N 1.0  		0.8330626320319906 		0.23309451369123566  0.585501033729028 		Uiso   ? 		N 		-0.38082
N 1.0  		0.6565580624578417 		0.46103641181666505  0.6219099092608483 		Uiso   ? 		N 		-0.38082
N 1.0  		0.7794375858752315 		0.9409657473746198  0.8927250435169687 		Uiso   ? 		N 		-0.38082
N 1.0  		0.8405370723828971 		0.021101187555206596  0.9363385021928949 		Uiso   ? 		N 		-0.38082
N 1.0  		0.7757960842951703 		0.4789478849739916  0.5462617862477374 		Uiso   ? 		N 		-0.38082
N 1.0  		0.3834820577888639 		0.25444106389243304  0.5923196570618423 		Uiso   ? 		N 		-0.38082
N 1.0  		0.7109407594354545 		0.48778094022965945  0.618178964418365 		Uiso   ? 		N 		-0.38082
N 1.0  		0.8347447798558747 		0.9704092648935128  0.8976138677933263 		Uiso   ? 		N 		-0.38082
N 1.0  		0.808048622206027 		0.8018451270978506  0.938010994708491 		Uiso   ? 		N 		-0.38082
N 1.0  		0.7477670706213495 		0.2635194817940917  0.550635997442373 		Uiso   ? 		N 		-0.38082
N 1.0  		0.5245932411203564 		0.3704975954460693  0.5822847019682663 		Uiso   ? 		N 		-0.39041
N 1.0  		0.6890957113358152 		0.26474629502404556  0.6305296783796892 		Uiso   ? 		N 		-0.39041
N 1.0  		0.5751965639932464 		0.4772303464520562  0.6707981520244236 		Uiso   ? 		N 		-0.39041
N 1.0  		0.7807063100753318 		0.7441849052900187  0.9311923713756767 		Uiso   ? 		N 		-0.39041
N 1.0  		0.8867914644868764 		0.5292472274021004  0.5409870021600884 		Uiso   ? 		N 		-0.39041
N 1.0  		0.49679307929957 		0.31234664834625575  0.5852437271881671 		Uiso   ? 		N 		-0.39041
N 1.0  		0.8225736101441492 		0.5380802826577682  0.6257695073737621 		Uiso   ? 		N 		-0.39041
N 1.0  		0.5426558796903459 		0.41809794876827955  0.6701548856722712 		Uiso   ? 		N 		-0.39041
N 1.0  		0.7529057749525447 		0.7748552360388655  0.9300344919418024 		Uiso   ? 		N 		-0.39041
N 1.0  		0.8614269292960107 		0.5613897340268917  0.5400864292670753 		Uiso   ? 		N 		-0.39041
N 1.0  		0.4667931061397753 		0.3403179899892041  0.5815127823456836 		Uiso   ? 		N 		-0.39041
N 1.0  		0.7970535258489705 		0.5694867013445873  0.6283425727823715 		Uiso   ? 		N 		-0.39041
N 1.0  		0.7612794070189062 		0.7206300912749043  0.8859064201841543 		Uiso   ? 		N 		-0.37095
N 1.0  		0.89319345511333 		0.04269310040239474  0.9273327732627628 		Uiso   ? 		N 		-0.37095
N 1.0  		0.830693572030891 		0.5054470507409953  0.542788147946115 		Uiso   ? 		N 		-0.37095
N 1.0  		0.4388461928375237 		0.28314849347335364  0.5883314056784981 		Uiso   ? 		N 		-0.37095
N 1.0  		0.7649794888590092 		0.5125625674747277  0.6253835475624708 		Uiso   ? 		N 		-0.37095
N 1.0  		0.6623863087641451 		0.7336343115124154  0.674529096866907 		Uiso   ? 		N 		-0.37095
N 1.0  		0.8649679396458838 		0.07336343115124154  0.9264322003697495 		Uiso   ? 		N 		-0.37095
N 1.0  		0.8044462068052749 		0.5370988320738052  0.5413729619713799 		Uiso   ? 		N 		-0.37095
N 1.0  		0.9123669153081138 		0.3130827362842281  0.5860156468107497 		Uiso   ? 		N 		-0.37095
N 1.0  		0.7394265352183982 		0.5434782608695652  0.622939135424292 		Uiso   ? 		N 		-0.37095
N 1.0  		0.8615013842757676 		0.024781627245068213  0.8904092846492204 		Uiso   ? 		N 		-0.37095
N 1.0  		0.7227173833430047 		0.8015997644518599  0.9314496779165375 		Uiso   ? 		N 		-0.37095
N 1.0  		0.6600303800258787 		0.25591323976837765  0.5418875750531016 		Uiso   ? 		N 		-0.37010
N 1.0  		0.9390388875763881 		0.3702522328000785  0.582156048697836 		Uiso   ? 		N 		-0.37010
N 1.0  		0.7718686114850022 		0.6011384826773973  0.6255122008329013 		Uiso   ? 		N 		-0.37010
N 1.0  		0.7326529829293853 		0.7500736087937973  0.8841052743981278 		Uiso   ? 		N 		-0.37010
N 1.0  		0.7809424986682449 		0.8317793699087251  0.9331221704321335 		Uiso   ? 		N 		-0.37010
N 1.0  		0.7169981495628375 		0.2895279222691138  0.5479342787633333 		Uiso   ? 		N 		-0.37010
N 1.0  		0.4944377188562487 		0.3977328491510453  0.5789397169370744 		Uiso   ? 		N 		-0.37010
N 1.0  		0.6603794768328455 		0.29443517518892925  0.6291144924049541 		Uiso   ? 		N 		-0.37010
N 1.0  		0.7905253330777193 		0.776572774560801  0.8812749024486577 		Uiso   ? 		N 		-0.37010
N 1.0  		0.8316891642956723 		0.7709294337030131  0.9454728843934578 		Uiso   ? 		N 		-0.37010
N 1.0  		0.7803016517493624 		0.2384924919030327  0.5534663693918431 		Uiso   ? 		N 		-0.37010
N 1.0  		0.5503915542787292 		0.34007262734321325  0.5761093449876042 		Uiso   ? 		N 		-0.37010
N 1.0  		0.2148717796573721 		0.233830601629208  0.6208806830974046 		Uiso   ? 		N 		-0.37431
N 1.0  		0.5965237859098511 		0.44508783982726474  0.662564342716874 		Uiso   ? 		N 		-0.37431
N 1.0  		0.20887657350990313 		0.5805280204141722  0.7100373995057142 		Uiso   ? 		N 		-0.37431
N 1.0  		0.3828952791809813 		0.48360977524781634  0.755194697426806 		Uiso   ? 		N 		-0.37431
N 1.0  		0.9791619048503294 		0.24438119540681127  0.7998373822661758 		Uiso   ? 		N 		-0.37431
N 1.0  		0.7988885606542414 		0.9632937481597803  0.8453806399985591 		Uiso   ? 		N 		-0.37431
N 1.0  		0.5234354449653174 		0.8496908430660517  0.8897660182970681 		Uiso   ? 		N 		-0.37431
N 1.0  		0.23381575505410906 		0.6372067916380411  0.7068210677449526 		Uiso   ? 		N 		-0.37431
N 1.0  		0.412239813276091 		0.5410246344096575  0.7539081647225013 		Uiso   ? 		N 		-0.37431
N 1.0  		0.00668101510257052 		0.3027775051526156  0.7997087289957455 		Uiso   ? 		N 		-0.37431
N 1.0  		0.8287931718367566 		0.021837275493178918  0.8475677455958769 		Uiso   ? 		N 		-0.37431
N 1.0  		0.5532947698185348 		0.9068603395819022  0.8879648725110417 		Uiso   ? 		N 		-0.37431
N 1.0  		0.18818071893539917 		0.528511139464128  0.7199437013288597 		Uiso   ? 		N 		-0.48983
N 1.0  		0.3532813138455257 		0.4269310040239474  0.7598262151623025 		Uiso   ? 		N 		-0.48983
N 1.0  		0.12127038637418158 		0.5272843262341742  0.8078138850328644 		Uiso   ? 		N 		-0.48983
N 1.0  		0.775550692452375 		0.9051428010599667  0.8392052830178969 		Uiso   ? 		N 		-0.48983
N 1.0  		0.4986758842480087 		0.7925213465502012  0.8956840687368693 		Uiso   ? 		N 		-0.48983
N 1.0  		0.2979692179299519 		0.5861713612719599  0.7169846761089591 		Uiso   ? 		N 		-0.48983
N 1.0  		0.4688880602835765 		0.48262832466385325  0.7559666170493887 		Uiso   ? 		N 		-0.48983
N 1.0  		0.06636986321353384 		0.2453626459907744  0.7998373822661758 		Uiso   ? 		N 		-0.48983
N 1.0  		0.8878256559699771 		0.9682010010795957  0.8435794942125326 		Uiso   ? 		N 		-0.48983
N 1.0  		0.6117086768955209 		0.849445480420061  0.8900233248379291 		Uiso   ? 		N 		-0.48983
N 1.0  		0.26576980673314965 		0.6114437138090097  0.7122245051030319 		Uiso   ? 		N 		-0.48983
N 1.0  		0.43992646626284515 		0.5118264795367553  0.7530075918294881 		Uiso   ? 		N 		-0.48983
N 1.0  		0.03677079867581394 		0.2745608008636765  0.7994514224548845 		Uiso   ? 		N 		-0.47594
N 1.0  		0.8575715256695728 		0.993964078908627  0.848982931570612 		Uiso   ? 		N 		-0.47594
N 1.0  		0.5819540632534879 		0.8779075473549907  0.8887367921336244 		Uiso   ? 		N 		-0.47594
N 1.0  		0.2415009650513644 		0.5552556678771224  0.7144116107003499 		Uiso   ? 		N 		-0.47594
N 1.0  		0.4111536639938597 		0.4534301697909511  0.75352220491121 		Uiso   ? 		N 		-0.47594
N 1.0  		0.010009015994090806 		0.21763666699381687  0.8038256336495202 		Uiso   ? 		N 		-0.47594
N 1.0  		0.832084684021827 		0.9370399450387673  0.8460239063507113 		Uiso   ? 		N 		-0.47594
N 1.0  		0.5519479869188054 		0.8217195014231035  0.891953123894386 		Uiso   ? 		N 		-0.47594
N 1.0  		0.4035411561253469 		0.5555010305231132  0.7102947060465751 		Uiso   ? 		N 		-0.47594
N 1.0  		0.5783922272400475 		0.4551477083128865  0.75635257686068 		Uiso   ? 		N 		-0.47594
N 1.0  		0.17352784065153215 		0.21616449111787223  0.7964923972349839 		Uiso   ? 		N 		-0.47594
N 1.0  		0.994337365268139 		0.9372853076847582  0.8497548511931948 		Uiso   ? 		N 		-0.47594
N 1.0  		0.49185837616978995 		0.5638433604867995  0.6714414183765759 		Uiso   ? 		N 		-0.47683
N 1.0  		0.3758304314160085 		0.5859259986259692  0.7147975705116412 		Uiso   ? 		N 		-0.47683
N 1.0  		0.5482367049759398 		0.48238296201786246  0.7553233506972364 		Uiso   ? 		N 		-0.47683
N 1.0  		0.14455744900795292 		0.24364510746883897  0.7964923972349839 		Uiso   ? 		N 		-0.47683
N 1.0  		0.966569699490784 		0.9684463637255865  0.8498835044636253 		Uiso   ? 		N 		-0.47683
N 1.0  		0.4633546318391498 		0.5935322406516832  0.6714414183765759 		Uiso   ? 		N 		-0.47683
N 1.0  		0.2915020078986573 		0.6688585729708509  0.7099087462352837 		Uiso   ? 		N 		-0.47683
N 1.0  		0.470276510151586 		0.5699774266365689  0.7544227778042232 		Uiso   ? 		N 		-0.47683
N 1.0  		0.06498714321841155 		0.33099420944155467  0.8004806486183282 		Uiso   ? 		N 		-0.47683
N 1.0  		0.8866502478853541 		0.05128079301207184  0.84563794653942 		Uiso   ? 		N 		-0.47683
N 1.0  		0.6119930089336026 		0.9345863185788597  0.8851345005615715 		Uiso   ? 		N 		-0.47683
N 1.0  		0.7776735326727225 		0.6973206399057809  0.7023182032798865 		Uiso   ? 		N 		-0.47683
N 1.0  		0.44297317054121077 		0.596967317695554  0.7506918329617398 		Uiso   ? 		N 		-0.47791
N 1.0  		0.03738150302225815 		0.3582294631465306  0.792890105662931 		Uiso   ? 		N 		-0.47791
N 1.0  		0.8583983395493642 		0.07679850819511239  0.839462589558758 		Uiso   ? 		N 		-0.47791
N 1.0  		0.5819601664283758 		0.9620669349298263  0.880245676285214 		Uiso   ? 		N 		-0.47791
N 1.0  		0.6381117372094727 		0.5044656001570321  0.7111952789395882 		Uiso   ? 		N 		-0.47791
N 1.0  		0.3032470283507999 		0.40165865148689767  0.7479901142827001 		Uiso   ? 		N 		-0.47791
N 1.0  		0.06588217960293749 		0.4998037098832074  0.7997087289957455 		Uiso   ? 		N 		-0.47791
N 1.0  		0.7224035906864186 		0.8825694376288155  0.8458952530802809 		Uiso   ? 		N 		-0.47791
N 1.0  		0.4450950045145453 		0.7682304445971145  0.8860350734545847 		Uiso   ? 		N 		-0.47791
N 1.0  		0.16177170143058228 		0.47526744528413  0.7122245051030319 		Uiso   ? 		N 		-0.47791
N 1.0  		0.49823600310561394 		0.7066444204534302  0.75635257686068 		Uiso   ? 		N 		-0.47791
N 1.0  		0.09530162331376013 		0.4710962803022868  0.8026677542156461 		Uiso   ? 		N 		-0.47791
N 1.0  		0.9128200090472972 		0.18819314947492397  0.8416496951560757 		Uiso   ? 		N 		-0.44555
N 1.0  		0.4715636575353388 		0.7382962017862401  0.8888654454040549 		Uiso   ? 		N 		-0.44555
N 1.0  		0.6082524123562553 		0.4472961036411817  0.7145402639707803 		Uiso   ? 		N 		-0.44555
N 1.0  		0.44096825412883633 		0.679654529394445  0.7591829488101502 		Uiso   ? 		N 		-0.44555
N 1.0  		0.03735473685171381 		0.44189812542938467  0.7990654626435931 		Uiso   ? 		N 		-0.44555
N 1.0  		0.8551513514484448 		0.15997644518598492  0.842550268049089 		Uiso   ? 		N 		-0.44555
N 1.0  		0.4158819478011644 		0.7127784866031995  0.8841052743981278 		Uiso   ? 		N 		-0.44555
N 1.0  		0.29710507072186576 		0.749337520855825  0.7132537312664756 		Uiso   ? 		N 		-0.44555
N 1.0  		0.46837667825239654 		0.6494749239375798  0.7572531497536933 		Uiso   ? 		N 		-0.44555
N 1.0  		0.06604689963209914 		0.41343605849445486  0.7998373822661758 		Uiso   ? 		N 		-0.44555
N 1.0  		0.8831731743664093 		0.13102365295907353  0.8419070016969366 		Uiso   ? 		N 		-0.44555
N 1.0  		0.6123860448458872 		0.01570320934340956  0.8898946715674986 		Uiso   ? 		N 		-0.44555
N 1.0  		0.7455792059891053 		0.7194032780449505  0.7128677714551843 		Uiso   ? 		N 		-0.27060
N 1.0  		0.41122281141165185 		0.62101285700265  0.7576391095649847 		Uiso   ? 		N 		-0.27060
N 1.0  		0.006980621240388701 		0.384973991559525  0.7971356635871362 		Uiso   ? 		N 		-0.27060
N 1.0  		0.8267137191106696 		0.10182549808617136  0.8443514138351154 		Uiso   ? 		N 		-0.27060
N 1.0  		0.5540610232692921 		0.9912650898027285  0.8871929528884589 		Uiso   ? 		N 		-0.27060
N 1.0  		0.5507481014845638 		0.4215330258121504  0.7160841032159457 		Uiso   ? 		N 		-0.27060
N 1.0  		0.38335653759800037 		0.6507017371675337  0.7558379637789583 		Uiso   ? 		N 		-0.27060
N 1.0  		0.9807930197881404 		0.4146628717244087  0.7968783570462753 		Uiso   ? 		N 		-0.27060
N 1.0  		0.797303073022695 		0.1322504661890274  0.8440941072942545 		Uiso   ? 		N 		-0.27060
N 1.0  		0.35626800930591407 		0.6840710570222789  0.8826900884233927 		Uiso   ? 		N 		-0.27060
N 1.0  		0.5821846679575367 		0.47845715968201  0.7131250779960452 		Uiso   ? 		N 		-0.27060
N 1.0  		0.2458653972379893 		0.3761409363038571  0.7488906871757133 		Uiso   ? 		N 		-0.27060
N 1.0  		0.009766691901256147 		0.47256845617823146  0.7986795028323018 		Uiso   ? 		N 		-0.25657
N 1.0  		0.6647108613649818 		0.8555795465698303  0.8413923886152148 		Uiso   ? 		N 		-0.25657
N 1.0  		0.38938922305778667 		0.743939542644028  0.8830760482346841 		Uiso   ? 		N 		-0.25657
N 1.0  		0.322516288474931 		0.6433408577878104  0.7146689172412107 		Uiso   ? 		N 		-0.25657
N 1.0  		0.49704746375815767 		0.5397978211797037  0.7548087376155146 		Uiso   ? 		N 		-0.25657
N 1.0  		0.09523247589596798 		0.30351359309058795  0.7990654626435931 		Uiso   ? 		N 		-0.25657
N 1.0  		0.915016038357377 		0.024290901953086665  0.8447373736464068 		Uiso   ? 		N 		-0.25657
N 1.0  		0.6411430214040792 		0.9066149769359113  0.8860350734545847 		Uiso   ? 		N 		-0.25657
N 1.0  		0.4061147366138849 		0.6430954951418196  0.7160841032159457 		Uiso   ? 		N 		-0.25657
N 1.0  		0.5781048274520051 		0.5412699970556483  0.7548087376155146 		Uiso   ? 		N 		-0.25657
N 1.0  		0.1732075715180575 		0.3017960545686525  0.7967497037758448 		Uiso   ? 		N 		-0.25657
N 1.0  		0.9968006829816617 		0.025517715183040534  0.8431935344012413 		Uiso   ? 		N 		-0.25657
N 1.0  		0.49255241445279435 		0.6519285503974875  0.6665525941002184 		Uiso   ? 		N 		-0.24764
N 1.0  		0.35017886973910095 		0.6153695161448621  0.7106806658578665 		Uiso   ? 		N 		-0.24764
N 1.0  		0.5230758623345556 		0.5128079301207185  0.7634285067343555 		Uiso   ? 		N 		-0.24764
N 1.0  		0.11728697874300992 		0.2711257238198057  0.789545120631739 		Uiso   ? 		N 		-0.24764
N 1.0  		0.941505143739737 		0.993964078908627  0.839462589558758 		Uiso   ? 		N 		-0.24764
N 1.0  		0.6687903285685127 		0.8815879870448523  0.8955554154664389 		Uiso   ? 		N 		-0.24764
N 1.0  		0.43193101831995406 		0.5272843262341742  0.7025755098207475 		Uiso   ? 		N 		-0.24764
N 1.0  		0.10553536815498975 		0.43036608106781826  0.7657442656021037 		Uiso   ? 		N 		-0.24764
N 1.0  		0.37172176323698486 		0.5245853371282756  0.7908316533360437 		Uiso   ? 		N 		-0.24764
N 1.0  		0.021425392000833265 		0.9115222298557268  0.8402345091813406 		Uiso   ? 		N 		-0.24764
N 1.0  		0.5206820163319039 		0.5373441947197959  0.6638508754211787 		Uiso   ? 		N 		-0.24764
N 1.0  		0.4892136680944674 		0.6401511433899304  0.7093941331535619 		Uiso   ? 		N 		-0.24764
N 1.0  		0.167361324339024 		0.5412699970556483  0.7544227778042232 		Uiso   ? 		N 		-0.26691
N 1.0  		0.26163635255257406 		0.302286779860634  0.7986795028323018 		Uiso   ? 		N 		-0.26691
N 1.0  		0.0825364842382959 		0.02355481401511434  0.8480823586775987 		Uiso   ? 		N 		-0.26691
N 1.0  		0.5792724764858268 		0.6507017371675337  0.674014483785185 		Uiso   ? 		N 		-0.26691
N 1.0  		0.4328528208750244 		0.6124251643929729  0.7131250779960452 		Uiso   ? 		N 		-0.26691
N 1.0  		0.11109908515587757 		0.5150161939346355  0.7571244964832629 		Uiso   ? 		N 		-0.26691
N 1.0  		0.20296218516009049 		0.2733339876337227  0.7980362364801495 		Uiso   ? 		N 		-0.26691
N 1.0  		0.023736017725913716 		0.9951908921385809  0.8476963988663074 		Uiso   ? 		N 		-0.26691
N 1.0  		0.5219389888181847 		0.6227303955245853  0.6716987249174368 		Uiso   ? 		N 		-0.26691
N 1.0  		0.46120981372419934 		0.5837177348120522  0.7102947060465751 		Uiso   ? 		N 		-0.26691
N 1.0  		0.13905516938297774 		0.48508195112376096  0.7584110291875674 		Uiso   ? 		N 		-0.26691
N 1.0  		0.23100807980063934 		0.24315438217685742  0.7984221962914408 		Uiso   ? 		N 		-0.26691
N 1.0  		0.052093010575088694 		0.9664834625576603  0.8484683184888901 		Uiso   ? 		N 		-0.26409
N 1.0  		0.5491918638374319 		0.5918147021297478  0.6732425641626023 		Uiso   ? 		N 		-0.26409
N 1.0  		0.4624186427653114 		0.6715575620767495  0.7142829574299193 		Uiso   ? 		N 		-0.26409
N 1.0  		0.13889044935381614 		0.5714496025125135  0.7517210591251835 		Uiso   ? 		N 		-0.26409
N 1.0  		0.23282151001330786 		0.3305034841495731  0.7982935430210104 		Uiso   ? 		N 		-0.26409
N 1.0  		0.05442485090688266 		0.05275296888801649  0.8444800671055459 		Uiso   ? 		N 		-0.26409
N 1.0  		0.551226581845278 		0.6808813426243989  0.6697689258609799 		Uiso   ? 		N 		-0.26409
N 1.0  		0.5168254114655088 		0.6970752772597901  0.7051485752293566 		Uiso   ? 		N 		-0.26409
N 1.0  		0.1943115254704924 		0.5994209441554619  0.7446451292515082 		Uiso   ? 		N 		-0.26409
N 1.0  		0.787822255376445 		0.3555304740406321  0.7968783570462753 		Uiso   ? 		N 		-0.26409
N 1.0  		0.10848117557613307 		0.08096967317695555  0.8515559969792212 		Uiso   ? 		N 		-0.26409
N 1.0  		0.6073244743012635 		0.704681519285504  0.6660379810184964 		Uiso   ? 		N 		-0.26409
N 1.0  		0.4970835145125396 		0.48164687407989015  0.7144116107003499 		Uiso   ? 		N 		-0.48459
N 1.0  		0.16046841968410266 		0.37491412307390326  0.7589256422692893 		Uiso   ? 		N 		-0.48459
N 1.0  		0.9275446155379274 		0.473059181470213  0.7976502766688581 		Uiso   ? 		N 		-0.48459
N 1.0  		0.08045269787222376 		0.8553341839238395  0.842550268049089 		Uiso   ? 		N 		-0.48459
N 1.0  		0.8176314566155014 		0.7466385317499264  0.8807602893669358 		Uiso   ? 		N 		-0.48459
N 1.0  		0.47338640465687853 		0.4244773775640397  0.715312183593363 		Uiso   ? 		N 		-0.48459
N 1.0  		0.30615038987462817 		0.6543821768573952  0.7519783656660444 		Uiso   ? 		N 		-0.48459
N 1.0  		0.8998671334760218 		0.41515359701639026  0.8004806486183282 		Uiso   ? 		N 		-0.48459
N 1.0  		0.22154683756907745 		0.13838453233879675  0.8462812128915723 		Uiso   ? 		N 		-0.48459
N 1.0  		0.7888105109013475 		0.6906958484640299  0.8874502594293198 		Uiso   ? 		N 		-0.48459
N 1.0  		0.440843025906018 		0.44778682893316324  0.7108093191282969 		Uiso   ? 		N 		-0.48459
N 1.0  		0.2774165601259627 		0.6806359799784082  0.7589256422692893 		Uiso   ? 		N 		-0.48459
N 1.0  		0.8707499903509773 		0.4436156639513201  0.8017671813226328 		Uiso   ? 		N 		-0.49847
N 1.0  		0.19224127599428784 		0.16561978604377273  0.8435794942125326 		Uiso   ? 		N 		-0.49847
N 1.0  		0.5173242138449123 		0.4507311806850525  0.6701548856722712 		Uiso   ? 		N 		-0.49847
N 1.0  		0.5733482842661533 		0.7208754539208951  0.7117098920213102 		Uiso   ? 		N 		-0.49847
N 1.0  		0.2501071173406997 		0.6234664834625577  0.7527502852886272 		Uiso   ? 		N 		-0.49847
N 1.0  		0.8420998678408728 		0.3854647168515066  0.8031823672973679 		Uiso   ? 		N 		-0.49847
N 1.0  		0.16317497076237208 		0.1091863774658946  0.8460239063507113 		Uiso   ? 		N 		-0.49847
N 1.0  		0.8885052804162354 		0.9942094415546177  0.8910525510013728 		Uiso   ? 		N 		-0.49847
N 1.0  		0.5446889908312001 		0.7498282461478065  0.7084935602605485 		Uiso   ? 		N 		-0.49847
N 1.0  		0.22047518345754755 		0.6521739130434783  0.755194697426806 		Uiso   ? 		N 		-0.49847
N 1.0  		0.31672836191292775 		0.41417214643242717  0.7989368093731627 		Uiso   ? 		N 		-0.49847
N 1.0  		0.13512027849897534 		0.13764844440082444  0.8449946801872676 		Uiso   ? 		N 		-0.49847
N 1.0  		0.6317400674645138 		0.7598881146334283  0.6714414183765759 		Uiso   ? 		N 		-0.49910
N 1.0  		0.40727006563894197 		0.47158700559426836  0.7066924144745222 		Uiso   ? 		N 		-0.49910
N 1.0  		0.07251276243941374 		0.371969771322014  0.7590542955397198 		Uiso   ? 		N 		-0.49910
N 1.0  		0.3461057653534696 		0.4720777308862499  0.7955918243419707 		Uiso   ? 		N 		-0.49910
N 1.0  		0.16474304145727886 		0.19604475414662875  0.8434508409421022 		Uiso   ? 		N 		-0.49910
N 1.0  		0.49079861975610234 		0.4814015114338993  0.6713127651061453 		Uiso   ? 		N 		-0.49910
N 1.0  		0.4649979854517703 		0.5054470507409953  0.7118385452917406 		Uiso   ? 		N 		-0.49910
N 1.0  		0.13067213907378955 		0.40116792619491615  0.7608554413257462 		Uiso   ? 		N 		-0.49910
N 1.0  		0.8958687927220808 		0.4998037098832074  0.7981648897505799 		Uiso   ? 		N 		-0.49910
N 1.0  		0.05225125412736176 		0.8847777014427324  0.843965454023824 		Uiso   ? 		N 		-0.49910
N 1.0  		0.5493741791122894 		0.5088821277848661  0.6696402725905494 		Uiso   ? 		N 		-0.49910
N 1.0  		0.5285797165014888 		0.45539307095887727  0.7202010078697205 		Uiso   ? 		N 		-0.49910
N 1.0  		0.18587462184324846 		0.3449798802630288  0.7491479937165744 		Uiso   ? 		N 		-0.48016
N 1.0  		0.9532202489374191 		0.4423888507213662  0.7923754925812091 		Uiso   ? 		N 		-0.48016
N 1.0  		0.6088407331810622 		0.8288350181568359  0.8347024185528309 		Uiso   ? 		N 		-0.48016
N 1.0  		0.8426455477754203 		0.7171950142310335  0.8781872239583266 		Uiso   ? 		N 		-0.48016
N 1.0  		0.6946593146777139 		0.23677495338109728  0.9261748938288886 		Uiso   ? 		N 		-0.48016
N 1.0  		0.1404266246252701 		0.7054176072234764  0.5385425900219096 		Uiso   ? 		N 		-0.48016
N 1.0  		0.740869004388486 		0.48729021493767793  0.5874308327854848 		Uiso   ? 		N 		-0.48016
N 1.0  		0.5710280006552346 		0.7005103543036608  0.6280852662415105 		Uiso   ? 		N 		-0.48016
N 1.0  		0.4538299397376493 		0.9208460104033763  0.6688683529679667 		Uiso   ? 		N 		-0.48016
N 1.0  		0.7250093585664547 		0.2949259004809108  0.9291339190487893 		Uiso   ? 		N 		-0.48016
N 1.0  		0.1673680281338906 		0.7618510158013545  0.5420162283235321 		Uiso   ? 		N 		-0.48016
N 1.0  		0.7719134598622319 		0.5447050740995192  0.583571234672571 		Uiso   ? 		N 		-0.48016
N 1.0  		0.6001929139234469 		0.7584159387574837  0.6256408541033318 		Uiso   ? 		N 		-0.49700
N 1.0  		0.4806574611102368 		0.978751594857199  0.6701548856722712 		Uiso   ? 		N 		-0.49700
N 1.0  		0.6639106833128576 		0.18377662184709  0.9228299087976967 		Uiso   ? 		N 		-0.49700
N 1.0  		0.11212046966922382 		0.649229561291589  0.5445892937321413 		Uiso   ? 		N 		-0.49700
N 1.0  		0.8889934509878215 		0.76356855432329  0.5889746720306503 		Uiso   ? 		N 		-0.49700
N 1.0  		0.546848969386898 		0.6440769457257828  0.6216526027199875 		Uiso   ? 		N 		-0.49700
N 1.0  		0.4322424575055472 		0.8666208656394151  0.6648801015846224 		Uiso   ? 		N 		-0.49700
N 1.0  		0.777692507467432 		0.23284915104524487  0.927976039614915 		Uiso   ? 		N 		-0.49700
N 1.0  		0.22685318369537225 		0.7061536951614487  0.5434314142982672 		Uiso   ? 		N 		-0.49700
N 1.0  		0.8257488700383057 		0.48238296201786246  0.5864016066220411 		Uiso   ? 		N 		-0.49700
N 1.0  		0.6569726383126612 		0.7019825301796055  0.629629105486676 		Uiso   ? 		N 		-0.49700
N 1.0  		0.5436169957427033 		0.9257532633231917  0.6656520212072051 		Uiso   ? 		N 		-0.49700
N 1.0  		0.7508646127928438 		0.26376484444008247  0.929648532130511 		Uiso   ? 		N 		-0.48796
N 1.0  		0.1962726810866054 		0.7333889488664246  0.5443319871912804 		Uiso   ? 		N 		-0.48796
N 1.0  		0.7991334655360469 		0.5132986554127  0.5864016066220411 		Uiso   ? 		N 		-0.48796
N 1.0  		0.6280351160145141 		0.7299538718225538  0.6271846933484972 		Uiso   ? 		N 		-0.48796
N 1.0  		0.5131263035473851 		0.9527431543821769  0.6686110464271057 		Uiso   ? 		N 		-0.48796
N 1.0  		0.7211520394210916 		0.20561389734026891  0.9278473863444846 		Uiso   ? 		N 		-0.48796
N 1.0  		0.16896323830134236 		0.6762194523505741  0.5429168012165453 		Uiso   ? 		N 		-0.48796
N 1.0  		0.7686695395112733 		0.45661988418883115  0.5853723804585974 		Uiso   ? 		N 		-0.48796
N 1.0  		0.6021561633675413 		0.6735204632446757  0.6304010251092589 		Uiso   ? 		N 		-0.48796
N 1.0  		0.48611916134790034 		0.8953282952203357  0.6693829660496885 		Uiso   ? 		N 		-0.48796
N 1.0  		0.89322973318569 		0.20978506232211208  0.9302917984826633 		Uiso   ? 		N 		-0.48796
N 1.0  		0.33477131140923994 		0.6772009029345373  0.5397004694557839 		Uiso   ? 		N 		-0.48796
N 1.0  		0.9334697816795803 		0.4504858180390618  0.5770099178806175 		Uiso   ? 		N 		-0.45835
N 1.0  		0.7730246547890269 		0.678673078810482  0.6287285325936628 		Uiso   ? 		N 		-0.45835
N 1.0  		0.8918728054391327 		0.16414761016782808  0.8864210332658761 		Uiso   ? 		N 		-0.45835
N 1.0  		0.8622811913002806 		0.23628422808911573  0.930163145212233 		Uiso   ? 		N 		-0.45835
N 1.0  		0.30806609649353267 		0.7083619589753657  0.5394431629149229 		Uiso   ? 		N 		-0.45835
N 1.0  		0.9053252790027349 		0.4791932476199824  0.579968943100518 		Uiso   ? 		N 		-0.45835
N 1.0  		0.740621551042743 		0.7056629698694671  0.6291144924049541 		Uiso   ? 		N 		-0.45835
N 1.0  		0.8636384923488386 		0.19310040239473944  0.8859064201841543 		Uiso   ? 		N 		-0.45835
N 1.0  		0.7820646173709028 		0.321915791539896  0.9342800498660075 		Uiso   ? 		N 		-0.45835
N 1.0  		0.22543759435481772 		0.7912945333202475  0.5452325600842937 		Uiso   ? 		N 		-0.45835
N 1.0  		0.828232640113395 		0.5702227892825597  0.581641435616114 		Uiso   ? 		N 		-0.45835
N 1.0  		0.6569963367332448 		0.789576994798312  0.6288571858640932 		Uiso   ? 		N 		-0.45835
N 1.0  		0.5390505425236557 		0.010550593777603298  0.6683537398862448 		Uiso   ? 		N 		-0.49961
N 1.0  		0.25487283145140005 		0.3567572872705859  0.9221866424455443 		Uiso   ? 		N 		-0.49961
N 1.0  		0.1945700652600091 		0.8158307979193249  0.5519225301466776 		Uiso   ? 		N 		-0.49961
N 1.0  		0.8022371108824291 		0.5977034056335264  0.5745655057424388 		Uiso   ? 		N 		-0.49961
N 1.0  		0.6309591405339989 		0.8148493473353617  0.6219099092608483 		Uiso   ? 		N 		-0.49961
N 1.0  		0.5092125949450625 		0.034596133084699186  0.6755583230303507 		Uiso   ? 		N 		-0.49961
N 1.0  		0.11765490436066348 		0.15924035724801258  0.9283619994262065 		Uiso   ? 		N 		-0.49961
N 1.0  		0.05803127565454119 		0.6205221317106684  0.5367414442358832 		Uiso   ? 		N 		-0.49961
N 1.0  		0.833598767739689 		0.7407498282461479  0.5800975963709486 		Uiso   ? 		N 		-0.49961
N 1.0  		0.4924509983095487 		0.6202767690646777  0.624868934480749 		Uiso   ? 		N 		-0.49961
N 1.0  		0.3749506368061853 		0.8408577878103838  0.669254312779258 		Uiso   ? 		N 		-0.49961
N 1.0  		0.6394381490815908 		0.1293061144371381  0.9292625723192196 		Uiso   ? 		N 		-0.49961
N 1.0  		0.25184391741167467 		0.9269800765531456  0.5412443087009493 		Uiso   ? 		N 		-0.49996
N 1.0  		0.8602382439645317 		0.7086073216213564  0.5817700888865446 		Uiso   ? 		N 		-0.49996
N 1.0  		0.6869580516516871 		0.9259986259691826  0.6234537485060139 		Uiso   ? 		N 		-0.49996
N 1.0  		0.40635702838168597 		0.8148493473353617  0.6682250866158144 		Uiso   ? 		N 		-0.49996
N 1.0  		0.09043527198884913 		0.10182549808617136  0.9319642909982593 		Uiso   ? 		N 		-0.49996
N 1.0  		0.1945104297440326 		0.8990087349101974  0.5426594946756844 		Uiso   ? 		N 		-0.49996
N 1.0  		0.8021205342984361 		0.6816174305623712  0.5812554758048227 		Uiso   ? 		N 		-0.49996
N 1.0  		0.6294449431571477 		0.8985180096182158  0.6260268139146231 		Uiso   ? 		N 		-0.49996
N 1.0  		0.34873651422800206 		0.784179016586515  0.669254312779258 		Uiso   ? 		N 		-0.49996
N 1.0  		0.7821100663681113 		0.4019040141328884  0.9351806227590209 		Uiso   ? 		N 		-0.49996
N 1.0  		0.22304704342010487 		0.8698105800372952  0.5435600675686976 		Uiso   ? 		N 		-0.49996
N 1.0  		0.8300196774575197 		0.652419275689469  0.5830566215908491 		Uiso   ? 		N 		-0.49996
N 1.0  		0.6571885372119185 		0.8685837668073413  0.6266700802667755 		Uiso   ? 		N 		-0.50180
N 1.0  		0.5410653441398464 		0.08980272843262342  0.6714414183765759 		Uiso   ? 		N 		-0.50180
N 1.0  		0.22336783183960285 		0.3812935518696634  0.9293912255896501 		Uiso   ? 		N 		-0.50180
N 1.0  		0.16446268644106998 		0.840612425164393  0.5449752535434327 		Uiso   ? 		N 		-0.50180
N 1.0  		0.7718033597551275 		0.6239572087545393  0.5797116365596572 		Uiso   ? 		N 		-0.50180
N 1.0  		0.5993402587861687 		0.8408577878103838  0.6279566129710801 		Uiso   ? 		N 		-0.50180
N 1.0  		0.4855151117874008 		0.06624791441750909  0.667581820263662 		Uiso   ? 		N 		-0.50180
N 1.0  		0.03290456824861396 		0.07090980469133379  0.9332508237025638 		Uiso   ? 		N 		-0.50180
N 1.0  		0.1367190923862993 		0.8705466679752675  0.5429168012165453 		Uiso   ? 		N 		-0.50180
N 1.0  		0.7448768570442427 		0.6534007262734322  0.5825420085091273 		Uiso   ? 		N 		-0.50180
N 1.0  		0.5722670045938189 		0.8712827559132399  0.6275706531597887 		Uiso   ? 		N 		-0.50180
N 1.0  		0.29205577117708503 		0.7532633231916773  0.6709268052948539 		Uiso   ? 		N 		-0.50180
N 1.0  		0.05881639024101896 		0.12783393856119346  0.930163145212233 		Uiso   ? 		N 		-0.49315
N 1.0  		0.0014162712944885691 		0.590587888899794  0.53584087134287 		Uiso   ? 		N 		-0.49315
N 1.0  		0.7740089009670228 		0.7108155854352733  0.5798402898300876 		Uiso   ? 		N 		-0.49315
N 1.0  		0.4369905763705517 		0.5964765924035725  0.6258981606441927 		Uiso   ? 		N 		-0.49315
N 1.0  		0.31943975027606036 		0.8131318088134263  0.6697689258609799 		Uiso   ? 		N 		-0.49315
N 1.0  		0.806522250804434 		0.2905093728530769  0.9328648638912727 		Uiso   ? 		N 		-0.49315
N 1.0  		0.25556024727349325 		0.76356855432329  0.5430454544869758 		Uiso   ? 		N 		-0.49315
N 1.0  		0.8568261948574837 		0.5402885464716852  0.5864016066220411 		Uiso   ? 		N 		-0.49315
N 1.0  		0.6860148718219927 		0.7596427519874375  0.629629105486676 		Uiso   ? 		N 		-0.49315
N 1.0  		0.5713361447728889 		0.9858671115909314  0.6669385539115097 		Uiso   ? 		N 		-0.49315
N 1.0  		0.8868852029132763 		0.29271763666699385  0.9326075573504116 		Uiso   ? 		N 		-0.49315
N 1.0  		0.3384402121048578 		0.7652860928452253  0.5390572031036316 		Uiso   ? 		N 		-0.49315
N 1.0  		0.9338110547856784 		0.5348905682598882  0.5860156468107497 		Uiso   ? 		N 		-0.46030
N 1.0  		0.7677513730011087 		0.7633231916772991  0.6258981606441927 		Uiso   ? 		N 		-0.46030
N 1.0  		0.897118947754506 		0.2519874374325253  0.8870642996180284 		Uiso   ? 		N 		-0.46030
N 1.0  		0.8321168714133249 		0.2618019432721563  0.9369817685450473 		Uiso   ? 		N 		-0.46030
N 1.0  		0.2853083844386378 		0.7397683776621848  0.5469050525998896 		Uiso   ? 		N 		-0.46030
N 1.0  		0.8796496456032429 		0.5098635783688291  0.5794543300187962 		Uiso   ? 		N 		-0.46030
N 1.0  		0.713889943258492 		0.7316714103444892  0.6349038895743249 		Uiso   ? 		N 		-0.46030
N 1.0  		0.5998662819720727 		0.9613308469918541  0.6729852576217413 		Uiso   ? 		N 		-0.46030
N 1.0  		0.9252823929010272 		0.18549416036902544  0.9368531152746169 		Uiso   ? 		N 		-0.46030
N 1.0  		0.8674091501646691 		0.6507017371675337  0.5453612133547241 		Uiso   ? 		N 		-0.46030
N 1.0  		0.12876703193766903 		0.7581705761114929  0.575466078635452 		Uiso   ? 		N 		-0.46030
N 1.0  		0.8079799617492246 		0.6580626165472568  0.6228104821538616 		Uiso   ? 		N 		-0.46030
N 1.0  		0.921268177427371 		0.13666699381686134  0.8898946715674986 		Uiso   ? 		N 		-0.45658
N 1.0  		0.9768606773680755 		0.2988517028167632  0.9297771854009416 		Uiso   ? 		N 		-0.45658
N 1.0  		0.9188383620042928 		0.7586613014034744  0.5303087807143602 		Uiso   ? 		N 		-0.45658
N 1.0  		0.020136183114132733 		0.5353812935518697  0.581898742156975 		Uiso   ? 		N 		-0.45658
N 1.0  		0.8577837885239243 		0.7687211698890961  0.6274419998893581 		Uiso   ? 		N 		-0.45658
N 1.0  		0.9810021012335423 		0.24806163509667287  0.886935646347598 		Uiso   ? 		N 		-0.45658
N 1.0  		0.9182346534207604 		0.2674452841299441  0.9272041199923322 		Uiso   ? 		N 		-0.45658
N 1.0  		0.8646922269215938 		0.7306899597605262  0.5381566302106182 		Uiso   ? 		N 		-0.45658
N 1.0  		0.9619226881170917 		0.505692413386986  0.5840858477542928 		Uiso   ? 		N 		-0.45658
N 1.0  		0.798699914886518 		0.7368240259102955  0.6285998793232324 		Uiso   ? 		N 		-0.45658
N 1.0  		0.9228274504994299 		0.22180783197566006  0.8856491136432935 		Uiso   ? 		N 		-0.45658
N 1.0  		0.9510386657891191 		0.24168220630091278  0.930163145212233 		Uiso   ? 		N 		-0.45658
N 1.0  		0.8931806971524976 		0.7039454313475317  0.5339110722864131 		Uiso   ? 		N 		-0.44559
N 1.0  		0.9911055699330005 		0.4782117970360193  0.5793256767483658 		Uiso   ? 		N 		-0.44559
N 1.0  		0.8305072150840935 		0.7120423986652273  0.6276993064302191 		Uiso   ? 		N 		-0.44559
N 1.0  		0.9494428550016886 		0.1908921385808225  0.8843625809389887 		Uiso   ? 		N 		-0.44559
N 1.0  		0.9449964361024836 		0.32436941799980373  0.9300344919418024 		Uiso   ? 		N 		-0.44559
N 1.0  		0.8896971471566641 		0.7883501815683581  0.532495886311678 		Uiso   ? 		N 		-0.44559
N 1.0  		0.9914227713165144 		0.5638433604867995  0.583828541213432 		Uiso   ? 		N 		-0.44559
N 1.0  		0.8256172466725542 		0.7944842477181274  0.6262841204554841 		Uiso   ? 		N 		-0.44559
N 1.0  		0.9563079059050972 		0.28069486701344587  0.8873216061588894 		Uiso   ? 		N 		-0.44559
N 1.0  		0.0001781276188946579 		0.35479438610265973  0.9229585620681271 		Uiso   ? 		N 		-0.44559
N 1.0  		0.9459353146172264 		0.8158307979193249  0.5225895844885325 		Uiso   ? 		N 		-0.44559
N 1.0  		0.5540944119007476 		0.5888703503778585  0.5955359888226038 		Uiso   ? 		N 		-0.44559
N 1.0  		0.8795092246146438 		0.8202473255471587  0.6186935775000869 		Uiso   ? 		N 		-0.46556
N 1.0  		0.011403942338988782 		0.3003238786927078  0.8820468220712404 		Uiso   ? 		N 		-0.46556
N 1.0  		0.9797247253946166 		0.12906075179114734  0.9308064115643853 		Uiso   ? 		N 		-0.46556
N 1.0  		0.9192992794443449 		0.5878888997938954  0.5395718161853533 		Uiso   ? 		N 		-0.46556
N 1.0  		0.689976674860562 		0.7093434095593287  0.5861443000811802 		Uiso   ? 		N 		-0.46556
N 1.0  		0.8553749280645478 		0.5947590538816371  0.6301437185683978 		Uiso   ? 		N 		-0.46556
N 1.0  		0.7457149523607522 		0.8229463146530573  0.667839126804523 		Uiso   ? 		N 		-0.46556
N 1.0  		0.9506255508172687 		0.07213661792128767  0.9265608536401799 		Uiso   ? 		N 		-0.46556
N 1.0  		0.055195081379512734 		0.8668662282854058  0.5339110722864131 		Uiso   ? 		N 		-0.46556
N 1.0  		0.6675545060388781 		0.6521739130434783  0.588588712219359 		Uiso   ? 		N 		-0.46556
N 1.0  		0.994520167503986 		0.8781529100009816  0.6270560400780668 		Uiso   ? 		N 		-0.46556
N 1.0  		0.7206530910576654 		0.7660221807831976  0.6751723632190593 		Uiso   ? 		N 		-0.46556
N 1.0  		0.9223014273135259 		0.10133477279418981  0.9273327732627628 		Uiso   ? 		N 		-0.46325
N 1.0  		0.02787646766940116 		0.8968004710962804  0.5337824190159826 		Uiso   ? 		N 		-0.46325
N 1.0  		0.6336135064951596 		0.6752380017666111  0.5887173654897894 		Uiso   ? 		N 		-0.46325
N 1.0  		0.9645442660667756 		0.904897438413976  0.6302723718388283 		Uiso   ? 		N 		-0.46325
N 1.0  		0.9181316627355567 		0.051771518304053396  0.8862923799954457 		Uiso   ? 		N 		-0.46325
N 1.0  		0.054740445423404865 		0.3810481892236726  0.9314496779165375 		Uiso   ? 		N 		-0.46325
N 1.0  		0.998576423247923 		0.8403670625184022  0.5319812732299561 		Uiso   ? 		N 		-0.46325
N 1.0  		0.6090094948821639 		0.6188045931887329  0.5879454458672068 		Uiso   ? 		N 		-0.46325
N 1.0  		0.9358043331432223 		0.8469918539601532  0.6257695073737621 		Uiso   ? 		N 		-0.46325
N 1.0  		0.8179788975465547 		0.06183138678967515  0.6732425641626023 		Uiso   ? 		N 		-0.46325
N 1.0  		0.025713112711809177 		0.40926489351261164  0.9287479592374979 		Uiso   ? 		N 		-0.46325
N 1.0  		0.9715929794690217 		0.8705466679752675  0.5303087807143602 		Uiso   ? 		N 		-0.46325
N 1.0  		0.06930253937184389 		0.646039846893709  0.5789397169370744 		Uiso   ? 		N 		-0.47498
N 1.0  		0.906417758777832 		0.8761900088330554  0.6270560400780668 		Uiso   ? 		N 		-0.47498
N 1.0  		0.034520522745677684 		0.3567572872705859  0.8862923799954457 		Uiso   ? 		N 		-0.47498
N 1.0  		0.8959554540516133 		0.13151437825105508  0.9266895069106105 		Uiso   ? 		N 		-0.47498
N 1.0  		0.8352453027612591 		0.5940229659436648  0.5409870021600884 		Uiso   ? 		N 		-0.47498
N 1.0  		0.09867114518953785 		0.7022278928255963  0.5795829832892267 		Uiso   ? 		N 		-0.47498
N 1.0  		0.9342419923212026 		0.9331141427029149  0.6300150652979675 		Uiso   ? 		N 		-0.47498
N 1.0  		0.8902982582673373 		0.08195112376091865  0.8866783398067372 		Uiso   ? 		N 		-0.47498
N 1.0  		0.9539264122362439 		0.15948571989400334  0.9306777582939547 		Uiso   ? 		N 		-0.47498
N 1.0  		0.8914746725989734 		0.6197860437726961  0.5402150825375056 		Uiso   ? 		N 		-0.47498
N 1.0  		0.6574661654551337 		0.7331435862204339  0.5864016066220411 		Uiso   ? 		N 		-0.47498
N 1.0  		0.8298307720467848 		0.6273922857984101  0.6302723718388283 		Uiso   ? 		N 		-0.47498
N 1.0  		0.9462012557966892 		0.1091863774658946  0.882175475341671 		Uiso   ? 		N 		-0.46949
N 1.0  		0.003623078396408623 		0.09691824516635589  0.9359525423816036 		Uiso   ? 		N 		-0.46949
N 1.0  		0.943209252774336 		0.5562371184610855  0.5331391526638303 		Uiso   ? 		N 		-0.46949
N 1.0  		0.7169119751942947 		0.6816174305623712  0.5780391440440612 		Uiso   ? 		N 		-0.46949
N 1.0  		0.38283796481096416 		0.5731671410344489  0.6338746634108812 		Uiso   ? 		N 		-0.46949
N 1.0  		0.774628402936315 		0.7962017862400629  0.6633362623394568 		Uiso   ? 		N 		-0.46949
N 1.0  		0.3812721829369831 		0.9193738345274316  0.7110666256691579 		Uiso   ? 		N 		-0.46949
N 1.0  		0.5491175548416978 		0.8143586220433802  0.7539081647225013 		Uiso   ? 		N 		-0.46949
N 1.0  		0.14629058070898834 		0.5820001962901168  0.7975216233984276 		Uiso   ? 		N 		-0.46949
N 1.0  		0.9632284369935533 		0.29836097752478163  0.8375327905023009 		Uiso   ? 		N 		-0.46949
N 1.0  		0.6966911109196217 		0.1830405339091177  0.8871929528884589 		Uiso   ? 		N 		-0.46949
N 1.0  		0.41131992623994573 		0.9777701442732359  0.7105520125874359 		Uiso   ? 		N 		-0.46949
N 1.0  		0.5790666901083639 		0.8712827559132399  0.7575104562945543 		Uiso   ? 		N 		-0.48539
N 1.0  		0.17562631718125019 		0.6376975169300226  0.7948199047193879 		Uiso   ? 		N 		-0.48539
N 1.0  		0.9923035398483169 		0.3565119246245952  0.8399772026404797 		Uiso   ? 		N 		-0.48539
N 1.0  		0.720690521361061 		0.23996466777897735  0.8873216061588894 		Uiso   ? 		N 		-0.48539
N 1.0  		0.35621911925674415 		0.8641672391795073  0.7063064546632308 		Uiso   ? 		N 		-0.48539
N 1.0  		0.5227895501274815 		0.7591520266954559  0.7459316619558127 		Uiso   ? 		N 		-0.48539
N 1.0  		0.29288825027969645 		0.862449700657572  0.8038256336495202 		Uiso   ? 		N 		-0.48539
N 1.0  		0.9398424253465184 		0.24266365688487587  0.8339304989302481 		Uiso   ? 		N 		-0.48539
N 1.0  		0.6758309096179569 		0.1285700264991658  0.896713294900313 		Uiso   ? 		N 		-0.48539
N 1.0  		0.4681806634197608 		0.9193738345274316  0.7147975705116412 		Uiso   ? 		N 		-0.48539
N 1.0  		0.6314716101461473 		0.8082245558936109  0.7544227778042232 		Uiso   ? 		N 		-0.48539
N 1.0  		0.2320139305712375 		0.5817548336441261  0.7948199047193879 		Uiso   ? 		N 		-0.48539
N 1.0  		0.05090304266969704 		0.30155069192266176  0.8434508409421022 		Uiso   ? 		N 		-0.45784
N 1.0  		0.7872230431008087 		0.19113750122681325  0.8856491136432935 		Uiso   ? 		N 		-0.45784
N 1.0  		0.43948850063937545 		0.9478359014623614  0.7135110378073366 		Uiso   ? 		N 		-0.45784
N 1.0  		0.6061070749552815 		0.8403670625184022  0.758282375917137 		Uiso   ? 		N 		-0.45784
N 1.0  		0.2046624475156938 		0.611198351163019  0.7970070103167058 		Uiso   ? 		N 		-0.45784
N 1.0  		0.0206817817147249 		0.3278044950436746  0.8431935344012413 		Uiso   ? 		N 		-0.45784
N 1.0  		0.754263481628137 		0.21616449111787223  0.8865496865363066 		Uiso   ? 		N 		-0.45784
N 1.0  		0.41044626713004406 		0.8901756796545295  0.7129964247256148 		Uiso   ? 		N 		-0.45784
N 1.0  		0.5775555604814734 		0.7836882912945333  0.7513350993138921 		Uiso   ? 		N 		-0.45784
N 1.0  		0.17668266486800993 		0.553538129355187  0.7991941159140236 		Uiso   ? 		N 		-0.45784
N 1.0  		0.9940871684655141 		0.2721071744037688  0.8410064288039234 		Uiso   ? 		N 		-0.45784
N 1.0  		0.7305006330816115 		0.1580135440180587  0.8897660182970681 		Uiso   ? 		N 		-0.45784
N 1.0  		0.5769728235455309 		0.8891942290705664  0.7102947060465751 		Uiso   ? 		N 		-0.39113
N 1.0  		0.747679175726826 		0.7856511924624595  0.7587969889988588 		Uiso   ? 		N 		-0.39113
N 1.0  		0.3445082340400583 		0.5513298655412701  0.7949485579898184 		Uiso   ? 		N 		-0.39113
N 1.0  		0.16222101314083726 		0.2725978996957503  0.8388193232066056 		Uiso   ? 		N 		-0.39113
N 1.0  		0.6503828621814747 		0.8970458337422712  0.6688683529679667 		Uiso   ? 		N 		-0.39113
N 1.0  		0.5487385104552369 		0.9181470212974777  0.7123531583734625 		Uiso   ? 		N 		-0.39113
N 1.0  		0.713444673220177 		0.8106781823535185  0.7569958432128324 		Uiso   ? 		N 		-0.39113
N 1.0  		0.3113690517404893 		0.5768475807243105  0.7954631710715402 		Uiso   ? 		N 		-0.39113
N 1.0  		0.1315266283960375 		0.3013053292766709  0.8417783484265062 		Uiso   ? 		N 		-0.39113
N 1.0  		0.6227290785401527 		0.9267347139071549  0.6687396996975362 		Uiso   ? 		N 		-0.39113
N 1.0  		0.4694829222353393 		0.00613406614976936  0.7131250779960452 		Uiso   ? 		N 		-0.39113
N 1.0  		0.6350835697737486 		0.8970458337422712  0.7605981347848852 		Uiso   ? 		N 		-0.39113
N 1.0  		0.23354913192071214 		0.6681224850328786  0.7989368093731627 		Uiso   ? 		N 		-0.36890
N 1.0  		0.04717413315610197 		0.3854647168515066  0.8428075745899499 		Uiso   ? 		N 		-0.36890
N 1.0  		0.7775925522071553 		0.2725978996957503  0.8877075659701809 		Uiso   ? 		N 		-0.36890
N 1.0  		0.9406727292871929 		0.03140641868681912  0.7199437013288597 		Uiso   ? 		N 		-0.36890
N 1.0  		0.6099467988549486 		0.9262439886151733  0.751849712395614 		Uiso   ? 		N 		-0.36890
N 1.0  		0.20487224324006315 		0.6936402002159192  0.7919895327699178 		Uiso   ? 		N 		-0.36890
N 1.0  		0.017336185577508822 		0.4095102561586025  0.8375327905023009 		Uiso   ? 		N 		-0.36890
N 1.0  		0.7441334740761123 		0.2949259004809108  0.8909238977309423 		Uiso   ? 		N 		-0.36890
N 1.0  		0.7998717192512689 		0.835214446952596  0.7151835303229326 		Uiso   ? 		N 		-0.36890
N 1.0  		0.470034559360752 		0.7360879379723232  0.7553233506972364 		Uiso   ? 		N 		-0.36890
N 1.0  		0.23495016144049796 		0.8349690843066052  0.8007379551591891 		Uiso   ? 		N 		-0.36890
N 1.0  		0.884741245061316 		0.21788202963980766  0.8412637353447843 		Uiso   ? 		N 		-0.36890
N 1.0  		0.6208940760599156 		0.1062420257140053  0.8871929528884589 		Uiso   ? 		N 		-0.38406
N 1.0  		0.3301276764374418 		0.8077338306016292  0.7167273695680981 		Uiso   ? 		N 		-0.38406
N 1.0  		0.6625823559218145 		0.03704975954460693  0.755194697426806 		Uiso   ? 		N 		-0.38406
N 1.0  		0.2649172652548605 		0.8065070173716754  0.7993227691844541 		Uiso   ? 		N 		-0.38406
N 1.0  		0.08275920059140873 		0.5233585238983217  0.8412637353447843 		Uiso   ? 		N 		-0.38406
N 1.0  		0.6449179315259397 		0.07311806850525077  0.8924677369761078 		Uiso   ? 		N 		-0.38406
N 1.0  		0.7727988383609197 		0.7768181372067917  0.7154408368637935 		Uiso   ? 		N 		-0.38406
N 1.0  		0.605877541148313 		0.007360879379723231  0.7576391095649847 		Uiso   ? 		N 		-0.38406
N 1.0  		0.20693750944738196 		0.7768181372067917  0.7985508495618713 		Uiso   ? 		N 		-0.38406
N 1.0  		0.02576968047782502 		0.4973500834232997  0.8430648811308108 		Uiso   ? 		N 		-0.38406
N 1.0  		0.588239509620982 		0.04858180390617333  0.8883508323223331 		Uiso   ? 		N 		-0.38406
N 1.0  		0.4680738093716733 		0.08661301403474335  0.7082362537196877 		Uiso   ? 		N 		-0.38406
N 1.0  		0.6363646139826135 		0.9812052213171067  0.7577677628354151 		Uiso   ? 		N 		-0.39237
N 1.0  		0.2367819335028636 		0.7481107076258711  0.7976502766688581 		Uiso   ? 		N 		-0.39237
N 1.0  		0.052385084980083624 		0.4664343900284621  0.8430648811308108 		Uiso   ? 		N 		-0.39237
N 1.0  		0.777090341100824 		0.352340759642752  0.8850058472911411 		Uiso   ? 		N 		-0.39237
N 1.0  		0.910598219813686 		0.056678771223868885  0.7145402639707803 		Uiso   ? 		N 		-0.39237
N 1.0  		0.5796597992091123 		0.951516341152223  0.756867189942402 		Uiso   ? 		N 		-0.39237
N 1.0  		0.17847580538702265 		0.7198940033369321  0.7977789299392885 		Uiso   ? 		N 		-0.39237
N 1.0  		0.9944826881916686 		0.4382176857395231  0.8452519867281286 		Uiso   ? 		N 		-0.39237
N 1.0  		0.7194545528474038 		0.3246147806457945  0.8864210332658761 		Uiso   ? 		N 		-0.39237
N 1.0  		0.7153338733115489 		0.7468838943959173  0.7162127564863763 		Uiso   ? 		N 		-0.39237
N 1.0  		0.5480649891838663 		0.9762979683972913  0.7596975618918721 		Uiso   ? 		N 		-0.39237
N 1.0  		0.1479851131917045 		0.7468838943959173  0.7968783570462753 		Uiso   ? 		N 		-0.39237
N 1.0  		0.9690940812782187 		0.47158700559426836  0.8455092932689896 		Uiso   ? 		N 		-0.38334
N 1.0  		0.5322073558558609 		0.025763077829031308  0.8860350734545847 		Uiso   ? 		N 		-0.38334
N 1.0  		0.7434363357181135 		0.80478947884974  0.7160841032159457 		Uiso   ? 		N 		-0.38334
N 1.0  		0.41444266004002633 		0.7103248601432919  0.754937390885945 		Uiso   ? 		N 		-0.38334
N 1.0  		0.1780240588718192 		0.8035626656197861  0.8008666084296195 		Uiso   ? 		N 		-0.38334
N 1.0  		0.8285359469461862 		0.1908921385808225  0.8442227605646849 		Uiso   ? 		N 		-0.38334
N 1.0  		0.56479618360393 		0.0824418490529002  0.8884794855927635 		Uiso   ? 		N 		-0.38334
N 1.0  		0.49801591655039384 		0.9777701442732359  0.7132537312664756 		Uiso   ? 		N 		-0.38334
N 1.0  		0.662091085275234 		0.865639415055452  0.7600835217031635 		Uiso   ? 		N 		-0.38334
N 1.0  		0.2616607652521254 		0.6389243301599765  0.7970070103167058 		Uiso   ? 		N 		-0.38334
N 1.0  		0.07946335476635295 		0.35994700166846605  0.8444800671055459 		Uiso   ? 		N 		-0.38334
N 1.0  		0.8112312511650959 		0.24977917361860832  0.8862923799954457 		Uiso   ? 		N 		-0.38334
N 1.0  		0.5793010445163072 		0.9762979683972913  0.7114525854804492 		Uiso   ? 		N 		-0.48534
N 1.0  		0.741726756453639 		0.8680930415153597  0.756867189942402 		Uiso   ? 		N 		-0.48534
N 1.0  		0.34001917425059386 		0.6349985278241241  0.7975216233984276 		Uiso   ? 		N 		-0.48534
N 1.0  		0.15788750245568584 		0.35700264991657676  0.8392052830178969 		Uiso   ? 		N 		-0.48534
N 1.0  		0.6536837236004498 		0.9843949357149867  0.6688683529679667 		Uiso   ? 		N 		-0.48534
N 1.0  		0.5225809556430695 		0.9495534399842969  0.7083649069901182 		Uiso   ? 		N 		-0.48534
N 1.0  		0.68758062137094 		0.8401216998724115  0.7497912600687267 		Uiso   ? 		N 		-0.48534
N 1.0  		0.28481058830624717 		0.6070271861811759  0.8025391009452156 		Uiso   ? 		N 		-0.48534
N 1.0  		0.10687177888991321 		0.3297673962116008  0.8488542783001816 		Uiso   ? 		N 		-0.48534
N 1.0  		0.8421557213279209 		0.22450682108155856  0.8928536967873992 		Uiso   ? 		N 		-0.48534
N 1.0  		0.6062783851203205 		0.8619589753655904  0.7032187761728997 		Uiso   ? 		N 		-0.48534
N 1.0  		0.2727062125413209 		0.7625871037393268  0.753264898370349 		Uiso   ? 		N 		-0.48534
N 1.0  		0.5314795233143667 		0.8555795465698303  0.7909603066064741 		Uiso   ? 		N 		-0.46382
N 1.0  		0.19438107851531883 		0.2514967121405437  0.8469244792437246 		Uiso   ? 		N 		-0.46382
N 1.0  		0.6815767635846457 		0.871037393267249  0.6755583230303507 		Uiso   ? 		N 		-0.46382
N 1.0  		0.6637735250671635 		0.9748257925213466  0.7108093191282969 		Uiso   ? 		N 		-0.46382
N 1.0  		0.33092863341860096 		0.8752085582490923  0.755194697426806 		Uiso   ? 		N 		-0.46382
N 1.0  		0.42651147201156037 		0.6367160663460596  0.8022817944043547 		Uiso   ? 		N 		-0.46382
N 1.0  		0.24682459777142163 		0.36190990283639224  0.8367608708797182 		Uiso   ? 		N 		-0.46382
N 1.0  		0.7380904654604418 		0.981941309255079  0.6705408454835626 		Uiso   ? 		N 		-0.46382
N 1.0  		0.6064969784675379 		0.946118362940426  0.7104233593170055 		Uiso   ? 		N 		-0.46382
N 1.0  		0.2733497862331973 		0.8467464913141625  0.7550660441563755 		Uiso   ? 		N 		-0.46382
N 1.0  		0.369651108133746 		0.6062910982432035  0.7973929701279971 		Uiso   ? 		N 		-0.46382
N 1.0  		0.18873743630479864 		0.3290313082736284  0.8381760568544533 		Uiso   ? 		N 		-0.46382
N 1.0  		0.6808227164836641 		0.9549514181960939  0.6657806744776356 		Uiso   ? 		N 		-0.47158
N 1.0  		0.635434500765685 		0.9181470212974777  0.7082362537196877 		Uiso   ? 		N 		-0.47158
N 1.0  		0.30200907966815044 		0.8177936990872511  0.75635257686068 		Uiso   ? 		N 		-0.47158
N 1.0  		0.40019874139708067 		0.578565119246246  0.7989368093731627 		Uiso   ? 		N 		-0.47158
N 1.0  		0.22038918739806101 		0.30351359309058795  0.8399772026404797 		Uiso   ? 		N 		-0.47158
N 1.0  		0.7080755915029113 		0.9240357248012563  0.6691256595088275 		Uiso   ? 		N 		-0.47158
N 1.0  		0.6357641191330645 		0.004661890273824713  0.7114525854804492 		Uiso   ? 		N 		-0.47158
N 1.0  		0.30253877122399386 		0.9034252625380312  0.7500485666095875 		Uiso   ? 		N 		-0.47158
N 1.0  		0.39644576016090133 		0.6637059574050447  0.7989368093731627 		Uiso   ? 		N 		-0.47158
N 1.0  		0.21450250681573846 		0.3869368927274512  0.838947976477036 		Uiso   ? 		N 		-0.47158
N 1.0  		0.7102366086306559 		0.012513494945529493  0.6695116193201189 		Uiso   ? 		N 		-0.47158
N 1.0  		0.6910208485225798 		0.03017960545686525  0.703862042525052 		Uiso   ? 		N 		-0.47158
N 1.0  		0.35602984054400855 		0.9279615271371088  0.746832234848826 		Uiso   ? 		N 		-0.45813
N 1.0  		0.9574378973175453 		0.6909412111100206  0.8083284981145864 		Uiso   ? 		N 		-0.45813
N 1.0  		0.26904075289766444 		0.41441750907841796  0.8312287802512084 		Uiso   ? 		N 		-0.45813
N 1.0  		0.764227194609042 		0.03974874865050545  0.665909327748066 		Uiso   ? 		N 		-0.45813
N 1.0  		0.6596165997839822 		0.8033173029737953  0.7145402639707803 		Uiso   ? 		N 		-0.45813
N 1.0  		0.33414544662204837 		0.709098046913338  0.7595689086214417 		Uiso   ? 		N 		-0.45813
N 1.0  		0.09561074135339387 		0.8040533909117676  0.7944339449080965 		Uiso   ? 		N 		-0.45813
N 1.0  		0.25116080290453313 		0.19506330356266566  0.8434508409421022 		Uiso   ? 		N 		-0.45813
N 1.0  		0.9755637584394954 		0.08121503582294633  0.8850058472911411 		Uiso   ? 		N 		-0.45813
N 1.0  		0.6310081442421578 		0.7473746196878988  0.7156981434046544 		Uiso   ? 		N 		-0.45813
N 1.0  		0.463984619632237 		0.9772794189812544  0.7569958432128324 		Uiso   ? 		N 		-0.45813
N 1.0  		0.06855545570874044 		0.7490921582098342  0.8017671813226328 		Uiso   ? 		N 		-0.45813
N 1.0  		0.3821698324355138 		0.4664343900284621  0.8390766297474666 		Uiso   ? 		N 		-0.44098
N 1.0  		0.9464645838621475 		0.024290901953086665  0.8879648725110417 		Uiso   ? 		N 		-0.44098
N 1.0  		0.6019567398079777 		0.7768181372067917  0.713896997618628 		Uiso   ? 		N 		-0.44098
N 1.0  		0.43801910263083255 		0.009078417901658652  0.7564812301311106 		Uiso   ? 		N 		-0.44098
N 1.0  		0.03873510337584313 		0.776572774560801  0.7963637439645536 		Uiso   ? 		N 		-0.44098
N 1.0  		0.355521558587823 		0.4968593581313181  0.8384333633953143 		Uiso   ? 		N 		-0.44098
N 1.0  		0.6886661700331926 		0.7912945333202475  0.6720846847287282 		Uiso   ? 		N 		-0.44098
N 1.0  		0.7440387940527668 		0.05716949651585043  0.7120958518326015 		Uiso   ? 		N 		-0.44098
N 1.0  		0.40742007986331225 		0.9512709785062322  0.758282375917137 		Uiso   ? 		N 		-0.44098
N 1.0  		0.011793699867222562 		0.7201393659829228  0.8031823672973679 		Uiso   ? 		N 		-0.44098
N 1.0  		0.32624276318357764 		0.44042594955344  0.8383047101248837 		Uiso   ? 		N 		-0.44098
N 1.0  		0.065157966422461 		0.3287859456276377  0.8883508323223331 		Uiso   ? 		N 		-0.44098
N 1.0  		0.7162382589299798 		0.08783982726469723  0.7099087462352837 		Uiso   ? 		N 		-0.49748
N 1.0  		0.38034682567096245 		0.9816959466090884  0.7537795114520709 		Uiso   ? 		N 		-0.49748
N 1.0  		0.4760523440228026 		0.7434488173520464  0.7968783570462753 		Uiso   ? 		N 		-0.49748
N 1.0  		0.29719135874939767 		0.46986946707233296  0.8370181774205792 		Uiso   ? 		N 		-0.49748
N 1.0  		0.7932189635272454 		0.09348316812248504  0.6725992978104499 		Uiso   ? 		N 		-0.49748
N 1.0  		0.5750959757879575 		0.8072431053096477  0.7075929873675354 		Uiso   ? 		N 		-0.49748
N 1.0  		0.24653375693141777 		0.708116596329375  0.7603408282440244 		Uiso   ? 		N 		-0.49748
N 1.0  		0.5062227670846461 		0.8020904897438415  0.7982935430210104 		Uiso   ? 		N 		-0.49748
N 1.0  		0.3265840362896759 		0.5248306997742663  0.8415210418856454 		Uiso   ? 		N 		-0.49748
N 1.0  		0.6570144189399303 		0.8168122485032879  0.6707981520244236 		Uiso   ? 		N 		-0.49748
N 1.0  		0.6313253456256717 		0.833006183138679  0.7114525854804492 		Uiso   ? 		N 		-0.49748
N 1.0  		0.3052495912921814 		0.7392776523702032  0.7595689086214417 		Uiso   ? 		N 		-0.49748
N 1.0  		0.06567650688446353 		0.833006183138679  0.7932760654742225 		Uiso   ? 		N 		-0.49498
N 1.0  		0.22228901929725042 		0.224016095789577  0.8415210418856454 		Uiso   ? 		N 		-0.49498
N 1.0  		0.7148562208887914 		0.8492001177740701  0.6704121922131322 		Uiso   ? 		N 		-0.49498
N 1.0  		0.6865431024948669 		0.7738737854549024  0.7217448471148862 		Uiso   ? 		N 		-0.49498
N 1.0  		0.3621038519951079 		0.6855432328982236  0.7490193404461438 		Uiso   ? 		N 		-0.49498
N 1.0  		0.1243774404474915 		0.7782903130827364  0.8034396738382288 		Uiso   ? 		N 		-0.49498
N 1.0  		0.7728454395891639 		0.16365688487584654  0.8500121577340557 		Uiso   ? 		N 		-0.49498
N 1.0  		0.003468876516075605 		0.05496123270193346  0.880245676285214 		Uiso   ? 		N 		-0.49498
N 1.0  		0.8614139763422337 		0.5707135145745412  0.9251456676654449 		Uiso   ? 		N 		-0.49498
N 1.0  		0.3069548202327824 		0.035086858376680734  0.5409870021600884 		Uiso   ? 		N 		-0.49498
N 1.0  		0.9144802926355674 		0.8204926881931495  0.5844718075655843 		Uiso   ? 		N 		-0.49498
N 1.0  		0.7378279486490522 		0.035822946314653055  0.6267987335372058 		Uiso   ? 		N 		-0.49498
N 1.0  		0.6305599847629384 		0.25689469035234075  0.6713127651061453 		Uiso   ? 		N 		-0.49390
N 1.0  		0.8856018052334182 		0.6288644616743548  0.9264322003697495 		Uiso   ? 		N 		-0.49390
N 1.0  		0.3364220340867729 		0.09274708018451272  0.5425308414052539 		Uiso   ? 		N 		-0.49390
N 1.0  		0.9425827550421322 		0.8783982726469723  0.5839571944838623 		Uiso   ? 		N 		-0.49390
N 1.0  		0.7653170122612126 		0.09250171753852195  0.629629105486676 		Uiso   ? 		N 		-0.49390
N 1.0  		0.6567412379956894 		0.3130827362842281  0.6744004435964764 		Uiso   ? 		N 		-0.49390
N 1.0  		0.8386895069347717 		0.5137893807046815  0.9221866424455443 		Uiso   ? 		N 		-0.49390
N 1.0  		0.2798630458816791 		0.9804691333791344  0.5312093536073733 		Uiso   ? 		N 		-0.49390
N 1.0  		0.044822100105753104 		0.09814505839630976  0.5912904308983987 		Uiso   ? 		N 		-0.49390
N 1.0  		0.7143813765729832 		0.9816959466090884  0.618178964418365 		Uiso   ? 		N 		-0.49390
N 1.0  		0.6095113650115282 		0.201197369712435  0.6677104735340925 		Uiso   ? 		N 		-0.49390
N 1.0  		0.9489951178333916 		0.577583668662283  0.9291339190487893 		Uiso   ? 		N 		-0.49390
N 1.0  		0.3903889216445753 		0.03238786927078222  0.5397004694557839 		Uiso   ? 		N 		-0.49954
N 1.0  		0.0011646626178163921 		0.820001962901168  0.5794543300187962 		Uiso   ? 		N 		-0.49954
N 1.0  		0.8238535990970796 		0.03533222102267151  0.6244829746694576 		Uiso   ? 		N 		-0.49954
N 1.0  		0.7195868904921229 		0.2615565806261655  0.6697689258609799 		Uiso   ? 		N 		-0.49954
N 1.0  		0.9175558569124588 		0.6031013838453235  0.9278473863444846 		Uiso   ? 		N 		-0.49954
N 1.0  		0.36437811831387307 		0.06281283737363824  0.5426594946756844 		Uiso   ? 		N 		-0.49954
N 1.0  		0.9716670288217443 		0.849445480420061  0.5807408627231009 		Uiso   ? 		N 		-0.49954
N 1.0  		0.7944670247316892 		0.06453037589557367  0.6258981606441927 		Uiso   ? 		N 		-0.49954
N 1.0  		0.6883031786755031 		0.2878103837471784  0.6704121922131322 		Uiso   ? 		N 		-0.49954
N 1.0  		0.8934337667121387 		0.5459318873294731  0.9293912255896501 		Uiso   ? 		N 		-0.49954
N 1.0  		0.3341836235294453 		0.005397978211797036  0.5394431629149229 		Uiso   ? 		N 		-0.49954
N 1.0  		0.9434747560017309 		0.7917852586122289  0.5812554758048227 		Uiso   ? 		N 		-0.49954
N 1.0  		0.7682200328080737 		0.007360879379723231  0.6246116279398881 		Uiso   ? 		N 		-0.50280
N 1.0  		0.6632741867178484 		0.23137697516930023  0.6718273781878673 		Uiso   ? 		N 		-0.50280
N 1.0  		0.056476644874401044 		0.54814015114339  0.9305491050235242 		Uiso   ? 		N 		-0.50280
N 1.0  		0.5048942447006585 		0.0034350770438708413  0.5331391526638303 		Uiso   ? 		N 		-0.50280
N 1.0  		0.10429180325844212 		0.7861419177544412  0.5827993150499883 		Uiso   ? 		N 		-0.50280
N 1.0  		0.9346919693015037 		0.013494945529492592  0.6295004522162455 		Uiso   ? 		N 		-0.50280
N 1.0  		0.05836816611173229 		0.4907252919815488  0.8833333547755451 		Uiso   ? 		N 		-0.50280
N 1.0  		0.027024331818146285 		0.5763568554323291  0.9277187330740542 		Uiso   ? 		N 		-0.50280
N 1.0  		0.47318555253937966 		0.0296888801648837  0.5340397255568435 		Uiso   ? 		N 		-0.50280
N 1.0  		0.0797443594114623 		0.8177936990872511  0.5839571944838623 		Uiso   ? 		N 		-0.50280
N 1.0  		0.9065474666246582 		0.04220237511041319  0.6274419998893581 		Uiso   ? 		N 		-0.50280
N 1.0  		0.02936490512272083 		0.5177151830405339  0.8866783398067372 		Uiso   ? 		N 		-0.50280
N 1.0  		0.9435334175957281 		0.6610069682991462  0.9270754667219019 		Uiso   ? 		N 		-0.27988
N 1.0  		0.39600310323659105 		0.12096378447345177  0.54420333392085 		Uiso   ? 		N 		-0.27988
N 1.0  		0.0008203217617573921 		0.9068603395819022  0.5789397169370744 		Uiso   ? 		N 		-0.27988
N 1.0  		0.8221028398253146 		0.12022769653547945  0.6316875578135634 		Uiso   ? 		N 		-0.27988
N 1.0  		0.7159806607374088 		0.3457159682010011  0.6741431370556156 		Uiso   ? 		N 		-0.27988
N 1.0  		0.4228278978361849 		0.6879968593581314  0.9368531152746169 		Uiso   ? 		N 		-0.27988
N 1.0  		0.3686668942807837 		0.1474629502404554  0.532238579770817 		Uiso   ? 		N 		-0.27988
N 1.0  		0.9733642557524205 		0.9318873294729612  0.5730216664972732 		Uiso   ? 		N 		-0.27988
N 1.0  		0.7917172321431817 		0.14402787319658455  0.639664060580252 		Uiso   ? 		N 		-0.27988
N 1.0  		0.684098824226121 		0.3677986063401708  0.6825055996335955 		Uiso   ? 		N 		-0.27988
N 1.0  		0.280668076859812 		0.49759544606929046  0.9269468134514713 		Uiso   ? 		N 		-0.27988
N 1.0  		0.2235855325987962 		0.9571596820100108  0.5364841376950222 		Uiso   ? 		N 		-0.27988
N 1.0  		0.9894038466944282 		0.06894690352340761  0.5858869935403194 		Uiso   ? 		N 		-0.25247
N 1.0  		0.6606449477352068 		0.9566689567180293  0.6224245223425702 		Uiso   ? 		N 		-0.25247
N 1.0  		0.553218577628909 		0.18083227009520073  0.6709268052948539 		Uiso   ? 		N 		-0.25247
N 1.0  		0.812002260566761 		0.45956423594072043  0.9319642909982593 		Uiso   ? 		N 		-0.25247
N 1.0  		0.4188804273004061 		0.26106585533418397  0.5375133638584659 		Uiso   ? 		N 		-0.25247
N 1.0  		0.021681447976479893 		0.042938463048385514  0.583571234672571 		Uiso   ? 		N 		-0.25247
N 1.0  		0.8542135281896367 		0.25542251447639613  0.6295004522162455 		Uiso   ? 		N 		-0.25247
N 1.0  		0.5755994527843136 		0.14697222494847384  0.6737571772443242 		Uiso   ? 		N 		-0.25247
N 1.0  		0.2508568954517632 		0.43797232309353223  0.9256602807471668 		Uiso   ? 		N 		-0.25247
N 1.0  		0.36281308304389337 		0.23137697516930023  0.5402150825375056 		Uiso   ? 		N 		-0.25247
N 1.0  		0.9638841357012502 		0.011532044361566397  0.5829279683204187 		Uiso   ? 		N 		-0.25247
N 1.0  		0.7970531848720035 		0.231622337815291  0.6292431456753846 		Uiso   ? 		N 		-0.25247
N 1.0  		0.5190525082610846 		0.12439886151732261  0.6680964333453838 		Uiso   ? 		N 		-0.26604
N 1.0  		0.9439140365241471 		0.7412405535381293  0.9288766125079282 		Uiso   ? 		N 		-0.26604
N 1.0  		0.39272324579023943 		0.20365099617234272  0.5359695246133005 		Uiso   ? 		N 		-0.26604
N 1.0  		0.9969627575717849 		0.987584650112867  0.5793256767483658 		Uiso   ? 		N 		-0.26604
N 1.0  		0.8228427004075283 		0.19947983119049956  0.6318162110839938 		Uiso   ? 		N 		-0.26604
N 1.0  		0.7127401491133777 		0.42423201491804896  0.6755583230303507 		Uiso   ? 		N 		-0.26604
N 1.0  		0.3902516497398921 		0.7108155854352733  0.9323502508095507 		Uiso   ? 		N 		-0.26604
N 1.0  		0.3347018230144808 		0.17175385219354206  0.5382852834810488 		Uiso   ? 		N 		-0.26604
N 1.0  		0.9379927660704116 		0.9542153302581216  0.5790683702075049 		Uiso   ? 		N 		-0.26604
N 1.0  		0.7639736380884109 		0.17396211600745903  0.6336173568700203 		Uiso   ? 		N 		-0.26604
N 1.0  		0.6551437066822783 		0.39233487093924824  0.6746577501373373 		Uiso   ? 		N 		-0.26604
N 1.0  		0.194732610127234 		0.4090195308666209  0.9284906526966369 		Uiso   ? 		N 		-0.26604
N 1.0  		0.30549486947598775 		0.20046128177446265  0.5397004694557839 		Uiso   ? 		N 		-0.25687
N 1.0  		0.9064789688357666 		0.9770340563352636  0.5836998879430014 		Uiso   ? 		N 		-0.25687
N 1.0  		0.7394590635868634 		0.20610462263225046  0.6325881307065766 		Uiso   ? 		N 		-0.25687
N 1.0  		0.4622842759426783 		0.10010795956423595  0.6656520212072051 		Uiso   ? 		N 		-0.25687
N 1.0  		0.22256564129345263 		0.467661203258416  0.9288766125079282 		Uiso   ? 		N 		-0.25687
N 1.0  		0.16590807737709584 		0.9272254391991364  0.5373847105880355 		Uiso   ? 		N 		-0.25687
N 1.0  		0.9311611361234922 		0.03533222102267151  0.5860156468107497 		Uiso   ? 		N 		-0.25687
N 1.0  		0.6018568982066902 		0.9291883403670625  0.6247402812103185 		Uiso   ? 		N 		-0.25687
N 1.0  		0.4956420515894647 		0.15874963195603103  0.6647514483141919 		Uiso   ? 		N 		-0.25687
N 1.0  		0.9746375085854506 		0.6352438904701149  0.9272041199923322 		Uiso   ? 		N 		-0.25687
N 1.0  		0.42180141639496377 		0.09053881637059574  0.543946027379989 		Uiso   ? 		N 		-0.25687
N 1.0  		0.03008421636826697 		0.8774168220630092  0.5798402898300876 		Uiso   ? 		N 		-0.25687
N 1.0  		0.85386847305461 		0.09323780547649427  0.6295004522162455 		Uiso   ? 		N 		-0.25684
N 1.0  		0.7455973205208244 		0.31995289037196983  0.6718273781878673 		Uiso   ? 		N 		-0.25684
N 1.0  		0.056401735258688135 		0.6342624398861518  0.9252743209358754 		Uiso   ? 		N 		-0.25684
N 1.0  		0.5005936033609393 		0.08833055255667878  0.5336537657455521 		Uiso   ? 		N 		-0.25684
N 1.0  		0.11361692581635652 		0.8761900088330554  0.5808695159935313 		Uiso   ? 		N 		-0.25684
N 1.0  		0.9348536215807046 		0.09839042104230053  0.6228104821538616 		Uiso   ? 		N 		-0.25684
N 1.0  		0.053364315564160075 		0.5746393169103936  0.8882221790519026 		Uiso   ? 		N 		-0.25684
N 1.0  		0.0015283192455518013 		0.6065364608891942  0.9210287630116701 		Uiso   ? 		N 		-0.25684
N 1.0  		0.44446931803641 		0.0593777603297674  0.5300514741734993 		Uiso   ? 		N 		-0.25684
N 1.0  		0.05427241856145204 		0.8467464913141625  0.5876881393263457 		Uiso   ? 		N 		-0.25684
N 1.0  		0.8799714079447204 		0.06894690352340761  0.6175356980662127 		Uiso   ? 		N 		-0.25684
N 1.0  		0.7718775550918726 		0.2887918343311415  0.6785173482502512 		Uiso   ? 		N 		-0.25684
N 1.0  		0.08776915431386875 		0.5236038865443126  0.9398121404945174 		Uiso   ? 		N 		-0.44770
N 1.0  		0.027840903876008904 		0.978751594857199  0.5436887208391281 		Uiso   ? 		N 		-0.44770
N 1.0  		0.2917069663381636 		0.08661301403474335  0.575466078635452 		Uiso   ? 		N 		-0.44770
N 1.0  		0.96043851965369 		0.9863578368829129  0.6235824017764444 		Uiso   ? 		N 		-0.44770
N 1.0  		0.09229389155571446 		0.47060555501030527  0.8783158772287571 		Uiso   ? 		N 		-0.44770
N 1.0  		0.14219082381180168 		0.6349985278241241  0.9320929442686898 		Uiso   ? 		N 		-0.44770
N 1.0  		0.08618962387318764 		0.09078417901658652  0.5360981778837309 		Uiso   ? 		N 		-0.44770
N 1.0  		0.1940738436695765 		0.8671115909313967  0.588588712219359 		Uiso   ? 		N 		-0.44770
N 1.0  		0.020900521045964914 		0.09789969575031898  0.6242256681285967 		Uiso   ? 		N 		-0.44770
N 1.0  		0.14236714957076033 		0.5805280204141722  0.8837193145868364 		Uiso   ? 		N 		-0.44770
N 1.0  		0.08484853852131177 		0.6053096476592404  0.9300344919418024 		Uiso   ? 		N 		-0.44770
N 1.0  		0.029379724586501236 		0.0642850132495829  0.5384139367514792 		Uiso   ? 		N 		-0.44770
N 1.0  		0.13712599052427288 		0.8433114142702915  0.5830566215908491 		Uiso   ? 		N 		-0.45397
N 1.0  		0.9629083138441014 		0.0699283541073707  0.6257695073737621 		Uiso   ? 		N 		-0.45397
N 1.0  		0.08464802738077984 		0.5483855137893807  0.888093525781472 		Uiso   ? 		N 		-0.45397
N 1.0  		0.11348376023368065 		0.577583668662283  0.9345373564068686 		Uiso   ? 		N 		-0.45397
N 1.0  		0.05472018805478269 		0.03336931985474532  0.5372560573176051 		Uiso   ? 		N 		-0.45397
N 1.0  		0.16130539509461014 		0.8109235449995094  0.5870448729741934 		Uiso   ? 		N 		-0.45397
N 1.0  		0.9922379471414753 		0.04146628717244087  0.6262841204554841 		Uiso   ? 		N 		-0.45397
N 1.0  		0.1164224582329231 		0.523113161252331  0.8839766211276975 		Uiso   ? 		N 		-0.45397
N 1.0  		0.11210104023855832 		0.6632152321130631  0.9281046928853456 		Uiso   ? 		N 		-0.45397
N 1.0  		0.0589936899219569 		0.12096378447345177  0.5420162283235321 		Uiso   ? 		N 		-0.45397
N 1.0  		0.17090874651571836 		0.9019530866620866  0.5878167925967762 		Uiso   ? 		N 		-0.45397
N 1.0  		0.9921959068711946 		0.12807930120718422  0.6247402812103185 		Uiso   ? 		N 		-0.45397
N 1.0  		0.10937471875265639 		0.6050642850132497  0.8873216061588894 		Uiso   ? 		N 		-0.44497
N 1.0  		0.16659761935220413 		0.688487584650113  0.921800682634253 		Uiso   ? 		N 		-0.44497
N 1.0  		0.11374442617621237 		0.1484444008244185  0.5332678059342607 		Uiso   ? 		N 		-0.44497
N 1.0  		0.707740421571701 		0.9237903621552656  0.5870448729741934 		Uiso   ? 		N 		-0.44497
N 1.0  		0.047620636759407926 		0.15261556580626168  0.6309156381909806 		Uiso   ? 		N 		-0.44497
N 1.0  		0.16560640973633003 		0.6372067916380411  0.8798597164739227 		Uiso   ? 		N 		-0.44497
N 1.0  		0.1395060556351908 		0.4664343900284621  0.9341513965955772 		Uiso   ? 		N 		-0.44497
N 1.0  		0.08590436692204823 		0.9240357248012563  0.5355835648020091 		Uiso   ? 		N 		-0.44497
N 1.0  		0.8518847065988817 		0.03189714397880067  0.5848577673768757 		Uiso   ? 		N 		-0.44497
N 1.0  		0.022308708996573334 		0.9358131318088135  0.6282139195119409 		Uiso   ? 		N 		-0.44497
N 1.0  		0.9080062974754508 		0.14329178525861222  0.6687396996975362 		Uiso   ? 		N 		-0.44497
N 1.0  		0.11317805092097463 		0.41122779468053783  0.9336367835138553 		Uiso   ? 		N 		-0.44497
N 1.0  		0.22472453226818212 		0.20168809500441653  0.5480629320337638 		Uiso   ? 		N 		-0.45880
N 1.0  		0.8208847752092867 		0.9728628913534204  0.5826706617795577 		Uiso   ? 		N 		-0.45880
N 1.0  		0.16218900405839543 		0.20708607321621358  0.6295004522162455 		Uiso   ? 		N 		-0.45880
N 1.0  		0.8748369402784097 		0.08587692609677103  0.6722133379991586 		Uiso   ? 		N 		-0.45880
N 1.0  		0.08374980958730419 		0.4382176857395231  0.9341513965955772 		Uiso   ? 		N 		-0.45880
N 1.0  		0.196065238833229 		0.23064088723132792  0.5454898666251545 		Uiso   ? 		N 		-0.45880
N 1.0  		0.7955238593794387 		0.004171164981843165  0.5811268225343923 		Uiso   ? 		N 		-0.45880
N 1.0  		0.13529537069294287 		0.23702031602708803  0.6280852662415105 		Uiso   ? 		N 		-0.45880
N 1.0  		0.09129107621004343 		0.38742761801943276  0.8901519781083594 		Uiso   ? 		N 		-0.45880
N 1.0  		0.2231533614982809 		0.7127784866031995  0.9268181601810409 		Uiso   ? 		N 		-0.45880
N 1.0  		0.16851043653020426 		0.17298066542349594  0.5448466002730022 		Uiso   ? 		N 		-0.45880
N 1.0  		0.76373970599139 		0.946118362940426  0.5826706617795577 		Uiso   ? 		N 		-0.45880
N 1.0  		0.10531336608084464 		0.17960545686524684  0.6293717989458152 		Uiso   ? 		N 		-0.44498
N 1.0  		0.9941423890075498 		0.4014132888409069  0.6668099006410793 		Uiso   ? 		N 		-0.44498
N 1.0  		0.19556531654782336 		0.7434488173520464  0.9282333461557759 		Uiso   ? 		N 		-0.44498
N 1.0  		0.13902525412851727 		0.20070664442045344  0.5425308414052539 		Uiso   ? 		N 		-0.44498
N 1.0  		0.24794785306396958 		0.9782608695652175  0.584986420647306 		Uiso   ? 		N 		-0.44498
N 1.0  		0.07734848423089656 		0.2078221611541859  0.6260268139146231 		Uiso   ? 		N 		-0.44498
N 1.0  		0.19165618558735234 		0.6914319364020022  0.8873216061588894 		Uiso   ? 		N 		-0.44498
N 1.0  		0.05366002601406081 		0.4664343900284621  0.9335081302434249 		Uiso   ? 		N 		-0.44498
N 1.0  		0.0004351742004086723 		0.926489351261164  0.5336537657455521 		Uiso   ? 		N 		-0.44498
N 1.0  		0.26922137997157475 		0.03484149573068996  0.5844718075655843 		Uiso   ? 		N 		-0.44498
N 1.0  		0.1067258876714384 		0.26572774560800866  0.6288571858640932 		Uiso   ? 		N 		-0.44498
N 1.0  		0.06089019442817395 		0.41417214643242717  0.8853918071024324 		Uiso   ? 		N 		-0.44498
N 1.0  		0.1125138142334417 		0.4948964569633919  0.9344087031364381 		Uiso   ? 		N 		-0.49395
N 1.0  		0.05861862255736888 		0.9544606929041124  0.5366127909654528 		Uiso   ? 		N 		-0.49395
N 1.0  		0.827059033888708 		0.06256747472764747  0.5831852748612797 		Uiso   ? 		N 		-0.49395
N 1.0  		0.9915754799888447 		0.9610854843458633  0.6266700802667755 		Uiso   ? 		N 		-0.49395
N 1.0  		0.11930372820315942 		0.4455785651192463  0.8865496865363066 		Uiso   ? 		N 		-0.49395
N 1.0  		0.1679857282432466 		0.43797232309353223  0.9363385021928949 		Uiso   ? 		N 		-0.49395
N 1.0  		0.10957777835712568 		0.8936107566984003  0.5314666601482343 		Uiso   ? 		N 		-0.49395
N 1.0  		0.8742290930478362 		0.998380606536461  0.5905185112758159 		Uiso   ? 		N 		-0.49395
N 1.0  		0.545774279850441 		0.9024438119540682  0.6201087634748219 		Uiso   ? 		N 		-0.49395
N 1.0  		0.9303959702537031 		0.1111492786338208  0.66423683523247 		Uiso   ? 		N 		-0.49395
N 1.0  		0.5435353009981685 		0.2519874374325253  0.7090081733422705 		Uiso   ? 		N 		-0.49395
N 1.0  		0.7111417898620097 		0.14181960938266758  0.7608554413257462 		Uiso   ? 		N 		-0.49395
N 1.0  		0.31750753599242837 		0.9159387574835608  0.7980362364801495 		Uiso   ? 		N 		-0.51834
N 1.0  		0.13358381125947605 		0.6318088134262441  0.8404918157222017 		Uiso   ? 		N 		-0.51834
N 1.0  		0.8627601586219844 		0.5194327215624693  0.8844912342094192 		Uiso   ? 		N 		-0.51834
N 1.0  		0.5742117171952718 		0.30866620865639416  0.7117098920213102 		Uiso   ? 		N 		-0.51834
N 1.0  		0.7357786708204377 		0.19874374325252728  0.7620133207596204 		Uiso   ? 		N 		-0.51834
N 1.0  		0.3451521487089019 		0.973353616645402  0.7976502766688581 		Uiso   ? 		N 		-0.51834
N 1.0  		0.16068076387240948 		0.6889783099420944  0.8417783484265062 		Uiso   ? 		N 		-0.51834
N 1.0  		0.8924069933028723 		0.5766022180783198  0.8824327818825318 		Uiso   ? 		N 		-0.51834
N 1.0  		0.5155073749053161 		0.19678084208460106  0.7024468565503169 		Uiso   ? 		N 		-0.51834
N 1.0  		0.6884941779142194 		0.09397389341446659  0.748504727364422 		Uiso   ? 		N 		-0.51834
N 1.0  		0.453613472543447 		0.19113750122681325  0.8103869504414738 		Uiso   ? 		N 		-0.51834
N 1.0  		0.10868629668355018 		0.5773383060162922  0.8326439662259435 		Uiso   ? 		N 		-0.51834
N 1.0  		0.8327059388421333 		0.46569830209048974  0.8826900884233927 		Uiso   ? 		N 		-0.48637
N 1.0  		0.6277536244084151 		0.24830699774266368  0.7108093191282969 		Uiso   ? 		N 		-0.48637
N 1.0  		0.8008478330764629 		0.14868976347040927  0.7567385366719714 		Uiso   ? 		N 		-0.48637
N 1.0  		0.40414658523486013 		0.9166748454215331  0.8025391009452156 		Uiso   ? 		N 		-0.48637
N 1.0  		0.22276626609297354 		0.6372067916380411  0.839462589558758 		Uiso   ? 		N 		-0.48637
N 1.0  		0.947101161791112 		0.5159976445185985  0.8865496865363066 		Uiso   ? 		N 		-0.48637
N 1.0  		0.6003452002848548 		0.27848660319952895  0.7123531583734625 		Uiso   ? 		N 		-0.48637
N 1.0  		0.7697766114321726 		0.17494356659142213  0.7590542955397198 		Uiso   ? 		N 		-0.48637
N 1.0  		0.3746942721786052 		0.9448915497104722  0.7967497037758448 		Uiso   ? 		N 		-0.48637
N 1.0  		0.19083628613651726 		0.6617430562371185  0.8435794942125326 		Uiso   ? 		N 		-0.48637
N 1.0  		0.9204857572888534 		0.5469133379134361  0.8843625809389887 		Uiso   ? 		N 		-0.48637
N 1.0  		0.5707312349493991 		0.22180783197566006  0.7079789471788268 		Uiso   ? 		N 		-0.48637
N 1.0  		0.7435296195085572 		0.1177740700755717  0.7569958432128324 		Uiso   ? 		N 		-0.49354
N 1.0  		0.34678022822178584 		0.8882127784866033  0.8006093018887587 		Uiso   ? 		N 		-0.49354
N 1.0  		0.16550499359308438 		0.6055550103052312  0.8383047101248837 		Uiso   ? 		N 		-0.49354
N 1.0  		0.8897107330554535 		0.48876239081362255  0.886935646347598 		Uiso   ? 		N 		-0.49354
N 1.0  		0.7424649611599392 		0.224016095789577  0.7109379723987274 		Uiso   ? 		N 		-0.49354
N 1.0  		0.9094275030299036 		0.11851015801354402  0.7577677628354151 		Uiso   ? 		N 		-0.49354
N 1.0  		0.507348262189198 		0.8855137893807048  0.7988081561027321 		Uiso   ? 		N 		-0.49354
N 1.0  		0.32779934180767656 		0.6080086367651389  0.8424216147786585 		Uiso   ? 		N 		-0.49354
N 1.0  		0.8258861096179552 		0.23064088723132792  0.6698975791314103 		Uiso   ? 		N 		-0.49354
N 1.0  		0.7101998112722726 		0.24830699774266368  0.7142829574299193 		Uiso   ? 		N 		-0.49354
N 1.0  		0.8808010789403826 		0.14795367553243696  0.7564812301311106 		Uiso   ? 		N 		-0.49354
N 1.0  		0.48100228892728547 		0.9156933948375701  0.8004806486183282 		Uiso   ? 		N 		-0.49354
N 1.0  		0.30196815930387166 		0.6379428795760134  0.8398485493700493 		Uiso   ? 		N 		-0.50610
N 1.0  		0.7998841039101008 		0.2627833938561194  0.6683537398862448 		Uiso   ? 		N 		-0.50610
N 1.0  		0.6316590869989468 		0.33516537442339783  0.7171133293793894 		Uiso   ? 		N 		-0.50610
N 1.0  		0.7953532634933672 		0.231622337815291  0.7613700544074681 		Uiso   ? 		N 		-0.50610
N 1.0  		0.404108164325597 		0.002453626459907744  0.8002233420774673 		Uiso   ? 		N 		-0.50610
N 1.0  		0.21869338902532023 		0.7191579153989597  0.8415210418856454 		Uiso   ? 		N 		-0.50610
N 1.0  		0.951072363072508 		0.6038374717832957  0.8873216061588894 		Uiso   ? 		N 		-0.50610
N 1.0  		0.11268635796347183 		0.36264599077436455  0.7061778013928003 		Uiso   ? 		N 		-0.50610
N 1.0  		0.7646565576026081 		0.25395033860045146  0.768317331010713 		Uiso   ? 		N 		-0.50610
N 1.0  		0.3762330928890976 		0.030424968102856022  0.7927614523925005 		Uiso   ? 		N 		-0.50610
N 1.0  		0.18538985999859017 		0.7422220041220925  0.8370181774205792 		Uiso   ? 		N 		-0.50610
N 1.0  		0.9213330235302115 		0.6293551869663363  0.8913098575422337 		Uiso   ? 		N 		-0.50610
N 1.0  		0.9668272163493997 		0.1712631269015605  0.7154408368637935 		Uiso   ? 		N 		-0.44475
N 1.0  		0.6330073631066788 		0.06502110118755522  0.7560952703198192 		Uiso   ? 		N 		-0.44475
N 1.0  		0.3989789395711839 		0.168564137795662  0.8020244878634938 		Uiso   ? 		N 		-0.44475
N 1.0  		0.05423138453818435 		0.5542742172931593  0.8402345091813406 		Uiso   ? 		N 		-0.44475
N 1.0  		0.780905993277907 		0.4394444989694769  0.8922104304352468 		Uiso   ? 		N 		-0.44475
N 1.0  		0.4929143828795827 		0.14181960938266758  0.7093941331535619 		Uiso   ? 		N 		-0.44475
N 1.0  		0.8244562200996436 		0.3663264304642262  0.7584110291875674 		Uiso   ? 		N 		-0.44475
N 1.0  		0.4288562329720977 		0.14034743350672294  0.8026677542156461 		Uiso   ? 		N 		-0.44475
N 1.0  		0.2485740911531619 		0.8575424477377565  0.8383047101248837 		Uiso   ? 		N 		-0.44475
N 1.0  		0.8076112081936143 		0.40828344292864854  0.8873216061588894 		Uiso   ? 		N 		-0.44475
N 1.0  		0.9382757018755916 		0.11458435567769164  0.7113239322100188 		Uiso   ? 		N 		-0.44475
N 1.0  		0.7666079416738938 		0.33860045146726864  0.75635257686068 		Uiso   ? 		N 		-0.44475
N 1.0  		0.37011632688874974 		0.11041319069584847  0.8021531411339242 		Uiso   ? 		N 		-0.45125
N 1.0  		0.1911924600403512 		0.832024732554716  0.8435794942125326 		Uiso   ? 		N 		-0.45125
N 1.0  		0.7499842175630419 		0.3822750024536265  0.8892514052153463 		Uiso   ? 		N 		-0.45125
N 1.0  		0.6359061959975771 		0.417607223476298  0.7149262237820717 		Uiso   ? 		N 		-0.45125
N 1.0  		0.7943274640060802 		0.30989302188634804  0.7607267880553158 		Uiso   ? 		N 		-0.45125
N 1.0  		0.40115467918760783 		0.08366866228285408  0.8009952617000501 		Uiso   ? 		N 		-0.45125
N 1.0  		0.2167935571261308 		0.7986554126999706  0.8415210418856454 		Uiso   ? 		N 		-0.45125
N 1.0  		0.9530390212435301 		0.6855432328982236  0.8859064201841543 		Uiso   ? 		N 		-0.45125
N 1.0  		0.0783291756979421 		0.38742761801943276  0.7113239322100188 		Uiso   ? 		N 		-0.45125
N 1.0  		0.7356292248910123 		0.28216704288939054  0.7613700544074681 		Uiso   ? 		N 		-0.45125
N 1.0  		0.34514427599911157 		0.05324369417999804  0.7980362364801495 		Uiso   ? 		N 		-0.45125
N 1.0  		0.1602618867026383 		0.7731376975169301  0.8446087203759763 		Uiso   ? 		N 		-0.45125
N 1.0  		0.8945116053325117 		0.6556089900873492  0.8841052743981278 		Uiso   ? 		N 		-0.45202
N 1.0  		0.8804755668950104 		0.08440475022082639  0.7135110378073366 		Uiso   ? 		N 		-0.45202
N 1.0  		0.709471670078845 		0.3135734615762097  0.7578964161058457 		Uiso   ? 		N 		-0.45202
N 1.0  		0.31489894332155516 		0.08072431053096478  0.7957204776124011 		Uiso   ? 		N 		-0.45202
N 1.0  		0.13394878278615785 		0.8038080282657768  0.8424216147786585 		Uiso   ? 		N 		-0.45202
N 1.0  		0.6917438281380652 		0.3550397487486506  0.8877075659701809 		Uiso   ? 		N 		-0.45202
N 1.0  		0.9104663691299566 		0.143537147904603  0.715312183593363 		Uiso   ? 		N 		-0.45202
N 1.0  		0.5744142085047961 		0.034105407792717646  0.7593116020805807 		Uiso   ? 		N 		-0.45202
N 1.0  		0.34135842541750006 		0.13789380704681523  0.7976502766688581 		Uiso   ? 		N 		-0.45202
N 1.0  		0.9984298177504805 		0.5272843262341742  0.8392052830178969 		Uiso   ? 		N 		-0.45202
N 1.0  		0.7235155645422484 		0.4122092452645009  0.8906665911900814 		Uiso   ? 		N 		-0.45202
N 1.0  		0.6588878902956097 		0.30547649425851414  0.7168560228385286 		Uiso   ? 		N 		-0.45202
N 1.0  		0.8292285243462215 		0.20757679850819513  0.7576391095649847 		Uiso   ? 		N 		-0.45597
N 1.0  		0.4330661389853107 		0.9740897045833744  0.799580075725315 		Uiso   ? 		N 		-0.45597
N 1.0  		0.24992015977392346 		0.6936402002159192  0.8429362278603802 		Uiso   ? 		N 		-0.45597
N 1.0  		0.9781127479194256 		0.5729217783884581  0.8868069930771675 		Uiso   ? 		N 		-0.45597
N 1.0  		0.73504918240303 		0.30523113161252335  0.7159554499455154 		Uiso   ? 		N 		-0.45597
N 1.0  		0.9097206326908333 		0.20536853469427815  0.7567385366719714 		Uiso   ? 		N 		-0.45597
N 1.0  		0.5127499536088843 		0.9740897045833744  0.8022817944043547 		Uiso   ? 		N 		-0.45597
N 1.0  		0.3320399743294186 		0.6951123760918638  0.8392052830178969 		Uiso   ? 		N 		-0.45597
N 1.0  		0.8295550103135729 		0.3187260771420159  0.6727279510808805 		Uiso   ? 		N 		-0.45597
N 1.0  		0.6782851054155528 		0.2698989105898518  0.7218735003853165 		Uiso   ? 		N 		-0.45597
N 1.0  		0.855272197022356 		0.17764255569732065  0.7488906871757133 		Uiso   ? 		N 		-0.45597
N 1.0  		0.45811309949066176 		0.9451369123564629  0.807427925221573 		Uiso   ? 		N 		-0.45597
N 1.0  		0.2767503755944711 		0.6691039356168417  0.8330299260372348 		Uiso   ? 		N 		-0.44924
N 1.0  		0.0009157807141378926 		0.5402885464716852  0.8803743295556444 		Uiso   ? 		N 		-0.44924
N 1.0  		0.7785637317723854 		0.20144273235842575  0.7063064546632308 		Uiso   ? 		N 		-0.44924
N 1.0  		0.44073063697798776 		0.09397389341446659  0.7496626067982961 		Uiso   ? 		N 		-0.44924
N 1.0  		0.7068448168922299 		0.19187358916478559  0.8097436840893214 		Uiso   ? 		N 		-0.44924
N 1.0  		0.35463603410511263 		0.5788104818922367  0.8480823586775987 		Uiso   ? 		N 		-0.44924
N 1.0  		0.8568675208487968 		0.20463244675630582  0.6656520212072051 		Uiso   ? 		N 		-0.44924
N 1.0  		0.8241177551004946 		0.312101285700265  0.7176279424611114 		Uiso   ? 		N 		-0.44924
N 1.0  		0.4971392543405987 		0.20806752380017668  0.7494053002574352 		Uiso   ? 		N 		-0.44924
N 1.0  		0.5961993291204137 		0.9684463637255865  0.8007379551591891 		Uiso   ? 		N 		-0.44924
N 1.0  		0.4165277289800112 		0.6906958484640299  0.8376614437727314 		Uiso   ? 		N 		-0.44924
N 1.0  		0.914976059590044 		0.3187260771420159  0.6718273781878673 		Uiso   ? 		N 		-0.44924
N 1.0  		0.7673384040132808 		0.2797134164294828  0.7165987162976677 		Uiso   ? 		N 		-0.50107
N 1.0  		0.4399196488089896 		0.17862400628128375  0.7544227778042232 		Uiso   ? 		N 		-0.50107
N 1.0  		0.53866214890329 		0.9421925606045736  0.8000946888070368 		Uiso   ? 		N 		-0.50107
N 1.0  		0.35908035917633624 		0.6641966826970263  0.842550268049089 		Uiso   ? 		N 		-0.50107
N 1.0  		0.8568736240236846 		0.2887918343311415  0.6680964333453838 		Uiso   ? 		N 		-0.50107
N 1.0  		0.8000854753136231 		0.2546864265384238  0.7151835303229326 		Uiso   ? 		N 		-0.50107
N 1.0  		0.46776185090005684 		0.1501619393463539  0.75352220491121 		Uiso   ? 		N 		-0.50107
N 1.0  		0.5651220043012356 		0.9105407792717637  0.7982935430210104 		Uiso   ? 		N 		-0.50107
N 1.0  		0.3847800642984124 		0.6322995387182255  0.8426789213195194 		Uiso   ? 		N 		-0.50107
N 1.0  		0.8850269243233778 		0.2618019432721563  0.6701548856722712 		Uiso   ? 		N 		-0.50107
N 1.0  		0.7922535138349026 		0.33761900088330554  0.7140256508890584 		Uiso   ? 		N 		-0.50107
N 1.0  		0.4675401898028787 		0.23726567867307882  0.7526216320181967 		Uiso   ? 		N 		-0.50107
N 1.0  		0.569158944273496 		0.9993620571204241  0.8031823672973679 		Uiso   ? 		N 		-0.48908
N 1.0  		0.3889396840295537 		0.7213661792128767  0.8401058559109102 		Uiso   ? 		N 		-0.48908
N 1.0  		0.8848862760168006 		0.34694278143095497  0.6719560314582976 		Uiso   ? 		N 		-0.48908
N 1.0  		0.8469561066439895 		0.36755324369418  0.7209729274923034 		Uiso   ? 		N 		-0.48908
N 1.0  		0.5245537816390468 		0.26204730591814707  0.7456743554149519 		Uiso   ? 		N 		-0.48908
N 1.0  		0.123080440184956 		0.02134655020119737  0.8141178952839571 		Uiso   ? 		N 		-0.48908
N 1.0  		0.44368162266096123 		0.747129257041908  0.8326439662259435 		Uiso   ? 		N 		-0.48908
N 1.0  		0.9428484365785833 		0.3731965845519678  0.6776167753572381 		Uiso   ? 		N 		-0.48908
N 1.0  		0.8290256920597302 		0.14427323584257534  0.7162127564863763 		Uiso   ? 		N 		-0.48908
N 1.0  		0.4958016423657179 		0.035822946314653055  0.7581537226467066 		Uiso   ? 		N 		-0.48908
N 1.0  		0.258535401654152 		0.13544018058690746  0.7961064374236925 		Uiso   ? 		N 		-0.48908
N 1.0  		0.41359112480875015 		0.526302875650211  0.8420356549673671 		Uiso   ? 		N 		-0.48908
N 1.0  		0.14933657070838627 		0.41809794876827955  0.886935646347598 		Uiso   ? 		N 		-0.48915
N 1.0  		0.8010371117891985 		0.08489547551280793  0.7145402639707803 		Uiso   ? 		N 		-0.48915
N 1.0  		0.6305720774537251 		0.3125920109922466  0.7575104562945543 		Uiso   ? 		N 		-0.48915
N 1.0  		0.23294995197010954 		0.07704387084110316  0.7990654626435931 		Uiso   ? 		N 		-0.48915
N 1.0  		0.553802970440765 		0.7986554126999706  0.8446087203759763 		Uiso   ? 		N 		-0.48915
N 1.0  		0.12153640888759984 		0.35994700166846605  0.8868069930771675 		Uiso   ? 		N 		-0.48915
N 1.0  		0.7735060079067575 		0.11482971832368243  0.7128677714551843 		Uiso   ? 		N 		-0.48915
N 1.0  		0.6053871630897567 		0.3442437923250565  0.7598262151623025 		Uiso   ? 		N 		-0.48915
N 1.0  		0.20227963894789402 		0.10452448719206989  0.8016385280522024 		Uiso   ? 		N 		-0.48915
N 1.0  		0.5241381672121808 		0.8268721169889097  0.8479537054071683 		Uiso   ? 		N 		-0.48915
N 1.0  		0.8500529345365161 		0.1187555206595348  0.6765875491937944 		Uiso   ? 		N 		-0.48915
N 1.0  		0.9005017958860613 		0.384973991559525  0.7168560228385286 		Uiso   ? 		N 		-0.48915
N 1.0  		0.5736394984081579 		0.2858474825792522  0.7586683357284284 		Uiso   ? 		N 		-0.49268
N 1.0  		0.1756076666796196 		0.047354990676219455  0.8053694728946857 		Uiso   ? 		N 		-0.49268
N 1.0  		0.4960685741510482 		0.7694572578270685  0.8444800671055459 		Uiso   ? 		N 		-0.49268
N 1.0  		0.22015992991799238 		0.6617430562371185  0.8855204603728629 		Uiso   ? 		N 		-0.49268
N 1.0  		0.8776302016951334 		0.4178525861222888  0.711967198562171 		Uiso   ? 		N 		-0.49268
N 1.0  		0.5468116037335697 		0.3167631759740897  0.7559666170493887 		Uiso   ? 		N 		-0.49268
N 1.0  		0.6468896052908814 		0.07876140936303858  0.8009952617000501 		Uiso   ? 		N 		-0.49268
N 1.0  		0.4668287512671229 		0.7976739621160075  0.843965454023824 		Uiso   ? 		N 		-0.49268
N 1.0  		0.9644118470881011 		0.42864854254588286  0.6729852576217413 		Uiso   ? 		N 		-0.49268
N 1.0  		0.7461304531286294 		0.1455000490725292  0.7109379723987274 		Uiso   ? 		N 		-0.49268
N 1.0  		0.40914731902354984 		0.03803121012857003  0.7539081647225013 		Uiso   ? 		N 		-0.49268
N 1.0  		0.6760457209362458 		0.1349494552949259  0.8047262065425335 		Uiso   ? 		N 		-0.49268
N 1.0  		0.4929201940864253 		0.8541073706938856  0.8443514138351154 		Uiso   ? 		N 		-0.49572
N 1.0  		0.8238625103789166 		0.14967121405437236  0.6736285239738936 		Uiso   ? 		N 		-0.49572
N 1.0  		0.8037333720366173 		0.17273530277750515  0.7140256508890584 		Uiso   ? 		N 		-0.49572
N 1.0  		0.4685816366919029 		0.06722936500147218  0.7575104562945543 		Uiso   ? 		N 		-0.49572
N 1.0  		0.2282484020083155 		0.16071253312395722  0.7972643168575667 		Uiso   ? 		N 		-0.49572
N 1.0  		0.38453092275172224 		0.5540288546471686  0.8393339362883274 		Uiso   ? 		N 		-0.49572
N 1.0  		0.882339461698807 		0.17567965452939446  0.672341991269589 		Uiso   ? 		N 		-0.49572
N 1.0  		0.8546684561137898 		0.113112179801747  0.7218735003853165 		Uiso   ? 		N 		-0.49572
N 1.0  		0.5187542493472466 		0.0009814505839630975  0.7524929787477663 		Uiso   ? 		N 		-0.49572
N 1.0  		0.28568319216021415 		0.10771420158994996  0.7885158944682953 		Uiso   ? 		N 		-0.49572
N 1.0  		0.9441610029089005 		0.4990676219452351  0.8340591522006785 		Uiso   ? 		N 		-0.49572
N 1.0  		0.17556866183426592 		0.38939051918735895  0.8790877968513399 		Uiso   ? 		N 		-0.49572
N 1.0  		0.02796212275192067 		0.9075964275198745  0.9344087031364381 		Uiso   ? 		N 		-0.52710
N 1.0  		0.4699679927319309 		0.37344194719795865  0.534168378827274 		Uiso   ? 		N 		-0.52710
N 1.0  		0.07286530029834187 		0.1504073019923447  0.5836998879430014 		Uiso   ? 		N 		-0.52710
N 1.0  		0.9112091514781082 		0.36559034252625383  0.6310442914614112 		Uiso   ? 		N 		-0.52710
N 1.0  		0.7897219412916117 		0.5900971636078124  0.6720846847287282 		Uiso   ? 		N 		-0.52710
N 1.0  		0.060191708846195124 		0.9652566493277065  0.938010994708491 		Uiso   ? 		N 		-0.52710
N 1.0  		0.49827414768797723 		0.4296299931298459  0.5400864292670753 		Uiso   ? 		N 		-0.52710
N 1.0  		0.10493933728830324 		0.20733143586220434  0.5820273954274054 		Uiso   ? 		N 		-0.52710
N 1.0  		0.9355437318507579 		0.4227598390421043  0.6319448643544243 		Uiso   ? 		N 		-0.52710
N 1.0  		0.8176688545938633 		0.6472666601236629  0.6689970062383971 		Uiso   ? 		N 		-0.52710
N 1.0  		0.9990148435073487 		0.854843458631858  0.9255316274767362 		Uiso   ? 		N 		-0.52710
N 1.0  		0.44339462849995304 		0.3177446265580528  0.5313380068778039 		Uiso   ? 		N 		-0.52710
N 1.0  		0.22084299541621216 		0.42766709196191977  0.5882027524080676 		Uiso   ? 		N 		-0.50007
N 1.0  		0.8835821340073307 		0.3116105604082835  0.6336173568700203 		Uiso   ? 		N 		-0.50007
N 1.0  		0.7667937793346681 		0.5348905682598882  0.6776167753572381 		Uiso   ? 		N 		-0.50007
N 1.0  		0.11360213867760977 		0.9029345372460498  0.9306777582939547 		Uiso   ? 		N 		-0.50007
N 1.0  		0.5541293750741612 		0.3704975954460693  0.540601042348797 		Uiso   ? 		N 		-0.50007
N 1.0  		0.156281806464439 		0.14427323584257534  0.5909044710871073 		Uiso   ? 		N 		-0.50007
N 1.0  		0.9983324432791749 		0.371969771322014  0.6224245223425702 		Uiso   ? 		N 		-0.50007
N 1.0  		0.8755767685355897 		0.5918147021297478  0.6689970062383971 		Uiso   ? 		N 		-0.50007
N 1.0  		0.08795937462355008 		0.9340955932868781  0.9344087031364381 		Uiso   ? 		N 		-0.50007
N 1.0  		0.5273584214675894 		0.40067720090293457  0.5381566302106182 		Uiso   ? 		N 		-0.50007
N 1.0  		0.13067191175581155 		0.17592501717538522  0.5824133552386969 		Uiso   ? 		N 		-0.50007
N 1.0  		0.967440842461782 		0.3977328491510453  0.6285998793232324 		Uiso   ? 		N 		-0.50007
N 1.0  		0.8470072855140851 		0.6205221317106684  0.6710554585652845 		Uiso   ? 		N 		-0.51000
N 1.0  		0.05646586708256085 		0.8779075473549907  0.9290052657783587 		Uiso   ? 		N 		-0.51000
N 1.0  		0.4991092075795596 		0.3437530670330749  0.5380279769401879 		Uiso   ? 		N 		-0.51000
N 1.0  		0.09930108397370319 		0.11998233388948867  0.5876881393263457 		Uiso   ? 		N 		-0.51000
N 1.0  		0.9416998436734263 		0.33860045146726864  0.6282139195119409 		Uiso   ? 		N 		-0.51000
N 1.0  		0.8204251236592595 		0.5631072725488272  0.6710554585652845 		Uiso   ? 		N 		-0.51000
N 1.0  		0.2295162012953582 		0.8823240749828247  0.9300344919418024 		Uiso   ? 		N 		-0.51000
N 1.0  		0.6619400971288844 		0.33835508882127785  0.5391858563740619 		Uiso   ? 		N 		-0.51000
N 1.0  		0.2652623850399544 		0.11532044361566396  0.5822847019682663 		Uiso   ? 		N 		-0.51000
N 1.0  		0.10981193777212472 		0.34669741878496424  0.6235824017764444 		Uiso   ? 		N 		-0.51000
N 1.0  		0.22654036496076543 		0.8347237216606145  0.8846198874798498 		Uiso   ? 		N 		-0.51000
N 1.0  		0.19700569188992983 		0.9061242516439298  0.9290052657783587 		Uiso   ? 		N 		-0.51000
N 1.0  		0.6335590325571252 		0.36828933163215233  0.5397004694557839 		Uiso   ? 		N 		-0.49756
N 1.0  		0.2388594707100253 		0.14623613701050153  0.5813841290752532 		Uiso   ? 		N 		-0.49756
N 1.0  		0.07932124557680655 		0.3736873098439494  0.6219099092608483 		Uiso   ? 		N 		-0.49756
N 1.0  		0.20067631311152836 		0.8641672391795073  0.8828187416938232 		Uiso   ? 		N 		-0.49756
N 1.0  		0.11711549026891449 		0.9902836392187653  0.9389115676015042 		Uiso   ? 		N 		-0.49756
N 1.0  		0.5561881648045914 		0.45833742271076655  0.5415016152418102 		Uiso   ? 		N 		-0.49756
N 1.0  		0.16204273953791992 		0.23186770046128177  0.5840858477542928 		Uiso   ? 		N 		-0.49756
N 1.0  		0.9928050043506471 		0.45441162037491417  0.6269273868076364 		Uiso   ? 		N 		-0.49756
N 1.0  		0.8749870681617689 		0.6781823535185003  0.6710554585652845 		Uiso   ? 		N 		-0.49756
N 1.0  		0.5883112378277452 		0.021101187555206596  0.9438003918778618 		Uiso   ? 		N 		-0.49756
N 1.0  		0.5301597662281934 		0.48532731376975174  0.5496067712789293 		Uiso   ? 		N 		-0.49756
N 1.0  		0.1336616749661607 		0.2618019432721563  0.5884600589489285 		Uiso   ? 		N 		-0.49756
N 1.0  		0.9583732857714049 		0.47649425851408383  0.622939135424292 		Uiso   ? 		N 		-0.48559
N 1.0  		0.8474054996881999 		0.7041907939935225  0.6657806744776356 		Uiso   ? 		N 		-0.48559
N 1.0  		0.4464237052075892 		0.8261360290509373  0.9314496779165375 		Uiso   ? 		N 		-0.48559
N 1.0  		0.39009845410657207 		0.28977328491510457  0.5382852834810488 		Uiso   ? 		N 		-0.48559
N 1.0  		0.1644340047516005 		0.40239473942487  0.5822847019682663 		Uiso   ? 		N 		-0.48559
N 1.0  		0.8283999409315276 		0.2887918343311415  0.6262841204554841 		Uiso   ? 		N 		-0.48559
N 1.0  		0.709582971425907 		0.5071645892629307  0.6702835389427017 		Uiso   ? 		N 		-0.48559
N 1.0  		0.972899328965462 		0.7996368632839337  0.9274614265331932 		Uiso   ? 		N 		-0.48559
N 1.0  		0.5868859582763188 		0.5962312297575818  0.5407296956192276 		Uiso   ? 		N 		-0.48559
N 1.0  		0.19339559877233187 		0.3731965845519678  0.5847291141064451 		Uiso   ? 		N 		-0.48559
N 1.0  		0.015407753322805251 		0.5900971636078124  0.6273133466189278 		Uiso   ? 		N 		-0.48559
N 1.0  		0.7387658532418157 		0.47968397291196396  0.6727279510808805 		Uiso   ? 		N 		-0.48559
N 1.0  		0.4185666023187863 		0.7687211698890961  0.9311923713756767 		Uiso   ? 		N 		-0.50461
N 1.0  		0.5303783595754107 		0.5694867013445873  0.5449752535434327 		Uiso   ? 		N 		-0.50461
N 1.0  		0.13654403251736535 		0.3444891549710472  0.5794543300187962 		Uiso   ? 		N 		-0.50461
N 1.0  		0.9578974675336173 		0.5613897340268917  0.6295004522162455 		Uiso   ? 		N 		-0.50461
N 1.0  		0.6818156789505526 		0.4495043674550987  0.667581820263662 		Uiso   ? 		N 		-0.50461
N 1.0  		0.12074634335726993 		0.07532633231916773  0.9368531152746169 		Uiso   ? 		N 		-0.50461
N 1.0  		0.557517352458625 		0.5400431838256944  0.5424021881348235 		Uiso   ? 		N 		-0.50461
N 1.0  		0.1649996334028369 		0.3172539012660713  0.5822847019682663 		Uiso   ? 		N 		-0.50461
N 1.0  		0.9863114014508088 		0.5319462165079989  0.6306583316501198 		Uiso   ? 		N 		-0.50461
N 1.0  		0.8769273334642476 		0.754735499067622  0.6749150566781984 		Uiso   ? 		N 		-0.50461
N 1.0  		0.5562345063898239 		0.046618902738247134  0.9436717386074313 		Uiso   ? 		N 		-0.50461
N 1.0  		0.4989001261341579 		0.5103543036608107  0.5460044797068764 		Uiso   ? 		N 		-0.50461
N 1.0  		0.10734624990372085 		0.2860928452252429  0.5790683702075049 		Uiso   ? 		N 		-0.50713
N 1.0  		0.9303426652305926 		0.5037295122190598  0.6262841204554841 		Uiso   ? 		N 		-0.50713
N 1.0  		0.8197669901466142 		0.7309353224065169  0.6727279510808805 		Uiso   ? 		N 		-0.50713
N 1.0  		0.361592356304939 		0.7397683776621848  0.9345373564068686 		Uiso   ? 		N 		-0.50713
N 1.0  		0.47293098977173564 		0.5429875355775837  0.5465190927885982 		Uiso   ? 		N 		-0.50713
N 1.0  		0.07971653798498321 		0.3145549121601728  0.5764953047988957 		Uiso   ? 		N 		-0.50713
N 1.0  		0.901201450382964 		0.5334183923839435  0.6262841204554841 		Uiso   ? 		N 		-0.50713
N 1.0  		0.6254460341082617 		0.42006084993620574  0.6711841118357149 		Uiso   ? 		N 		-0.50713
N 1.0  		0.3906915308822869 		0.7966925115320443  0.9351806227590209 		Uiso   ? 		N 		-0.50713
N 1.0  		0.3317747307450353 		0.2581215035822947  0.5418875750531016 		Uiso   ? 		N 		-0.50713
N 1.0  		0.10794168015042871 		0.3727058592599863  0.5795829832892267 		Uiso   ? 		N 		-0.50713
N 1.0  		0.7717455907491542 		0.26302875650211016  0.6289858391345238 		Uiso   ? 		N 		-0.50713
N 1.0  		0.6527554768935248 		0.4772303464520562  0.6695116193201189 		Uiso   ? 		N 		-0.48487
N 1.0  		0.1452271236003277 		0.9610854843458633  0.9359525423816036 		Uiso   ? 		N 		-0.48487
N 1.0  		0.583931758859362 		0.4284031798998921  0.5402150825375056 		Uiso   ? 		N 		-0.48487
N 1.0  		0.18747301341965006 		0.20070664442045344  0.5853723804585974 		Uiso   ? 		N 		-0.48487
N 1.0  		0.02539370384132486 		0.42987535577583674  0.6238397083173053 		Uiso   ? 		N 		-0.48487
N 1.0  		0.9055347014251035 		0.6504563745215428  0.6691256595088275 		Uiso   ? 		N 		-0.48487
N 1.0  		0.22232171033362635 		0.9652566493277065  0.927976039614915 		Uiso   ? 		N 		-0.48487
N 1.0  		0.6638762071004337 		0.4259495534399843  0.5408583488896579 		Uiso   ? 		N 		-0.48487
N 1.0  		0.27093350769998664 		0.20316027088036118  0.5874308327854848 		Uiso   ? 		N 		-0.48487
N 1.0  		0.10617283867197834 		0.43036608106781826  0.6237110550468749 		Uiso   ? 		N 		-0.48487
N 1.0  		0.23215454655278123 		0.923299636863284  0.8859064201841543 		Uiso   ? 		N 		-0.48487
N 1.0  		0.1688611892130844 		0.9348316812248504  0.9239877882315708 		Uiso   ? 		N 		-0.48487
N 1.0  		0.6109897389519755 		0.4009225635489253  0.5474196656816115 		Uiso   ? 		N 		-0.50414
N 1.0  		0.2148990327889061 		0.17396211600745903  0.5925769636027033 		Uiso   ? 		N 		-0.50414
N 1.0  		0.05428308269430335 		0.40435764059279616  0.6161205120914776 		Uiso   ? 		N 		-0.50414
N 1.0  		0.9327723023446144 		0.6224850328785946  0.6619210763647216 		Uiso   ? 		N 		-0.50414
N 1.0  		0.26004856045895647 		0.8575424477377565  0.9359525423816036 		Uiso   ? 		N 		-0.50414
N 1.0  		0.19719953156062883 		0.3157817253901266  0.5384139367514792 		Uiso   ? 		N 		-0.50414
N 1.0  		0.463962300760667 		0.4217783884581412  0.5743081992015778 		Uiso   ? 		N 		-0.50414
N 1.0  		0.13825226455785983 		0.32240651683187754  0.6328454372474375 		Uiso   ? 		N 		-0.50414
N 1.0  		0.25477467805105947 		0.805770929433703  0.8783158772287571 		Uiso   ? 		N 		-0.50414
N 1.0  		0.3122643154429933 		0.9708999901854942  0.9323502508095507 		Uiso   ? 		N 		-0.50414
N 1.0  		0.25536501136989254 		0.42913926783786444  0.5390572031036316 		Uiso   ? 		N 		-0.50414
N 1.0  		0.3540565109031535 		0.19898910589851804  0.581898742156975 		Uiso   ? 		N 		-0.50414
N 1.0  		0.1940386855032186 		0.43355579546569833  0.6276993064302191 		Uiso   ? 		N 		-0.48444
N 1.0  		0.3155710527188783 		0.9171655707135147  0.8879648725110417 		Uiso   ? 		N 		-0.48444
N 1.0  		0.25403040249490516 		0.9390028462066936  0.9300344919418024 		Uiso   ? 		N 		-0.48444
N 1.0  		0.19614318387386903 		0.3999411129649622  0.5387998965627705 		Uiso   ? 		N 		-0.48444
N 1.0  		0.2962739711682681 		0.1722445774855236  0.583828541213432 		Uiso   ? 		N 		-0.48444
N 1.0  		0.13705564186652336 		0.4028854647168515  0.6238397083173053 		Uiso   ? 		N 		-0.48444
N 1.0  		0.2579111927428738 		0.890666404946511  0.8883508323223331 		Uiso   ? 		N 		-0.48444
N 1.0  		0.2854696634158379 		0.913485131023653  0.9311923713756767 		Uiso   ? 		N 		-0.48444
N 1.0  		0.2262329674471124 		0.3717244086760232  0.5409870021600884 		Uiso   ? 		N 		-0.48444
N 1.0  		0.32332315363803366 		0.14304642261262146  0.5790683702075049 		Uiso   ? 		N 		-0.48444
N 1.0  		0.16803705309736494 		0.37687702424182945  0.6262841204554841 		Uiso   ? 		N 		-0.48444
N 1.0  		0.28437984576366726 		0.8607321621356365  0.885263153832002 		Uiso   ? 		N 		-0.48444
N 1.0  		0.27966399562411626 		0.9949455294925901  0.9274614265331932 		Uiso   ? 		N 		-0.36428
N 1.0  		0.22533216886466567 		0.45661988418883115  0.5346829919089958 		Uiso   ? 		N 		-0.36428
N 1.0  		0.3271388058151167 		0.23015016193934637  0.588588712219359 		Uiso   ? 		N 		-0.36428
N 1.0  		0.16294339213634404 		0.46103641181666505  0.6246116279398881 		Uiso   ? 		N 		-0.36428
N 1.0  		0.28718998814711916 		0.9470998135243891  0.8905379379196509 		Uiso   ? 		N 		-0.36428
N 1.0  		0.33251473731127157 		0.023309451369123567  0.9228299087976967 		Uiso   ? 		N 		-0.36428
N 1.0  		0.279885689046328 		0.4811561487879086  0.5301801274439297 		Uiso   ? 		N 		-0.36428
N 1.0  		0.8906808250397149 		0.2573854156443223  0.5909044710871073 		Uiso   ? 		N 		-0.36428
N 1.0  		0.21673028556524845 		0.4899892040435765  0.6337460101404508 		Uiso   ? 		N 		-0.36428
N 1.0  		0.34270735115413253 		0.9701639022475219  0.8958127220072998 		Uiso   ? 		N 		-0.36428
N 1.0  		0.30992119367448123 		0.7979193247619982  0.9297771854009416 		Uiso   ? 		N 		-0.36428
N 1.0  		0.2533658571554388 		0.2581215035822947  0.5514079170649557 		Uiso   ? 		N 		-0.36428
N 1.0  		0.02741670246038483 		0.37442339778192174  0.5767526113397565 		Uiso   ? 		N 		-0.36386
N 1.0  		0.19305383870524398 		0.26499165767003635  0.6310442914614112 		Uiso   ? 		N 		-0.36386
N 1.0  		0.07567847810672074 		0.49219746785749335  0.6598626240378344 		Uiso   ? 		N 		-0.36386
N 1.0  		0.2790563590276328 		0.7400137403081756  0.9324789040799812 		Uiso   ? 		N 		-0.36386
N 1.0  		0.3927388608669428 		0.5385710079497498  0.5416302685122407 		Uiso   ? 		N 		-0.36386
N 1.0  		0.0009812920870242159 		0.3160270880361174  0.5824133552386969 		Uiso   ? 		N 		-0.36386
N 1.0  		0.32891311752344254 		0.5469133379134361  0.6253835475624708 		Uiso   ? 		N 		-0.36386
N 1.0  		0.0512212179751903 		0.4347826086956522  0.6650087548550527 		Uiso   ? 		N 		-0.36386
N 1.0  		0.25271038576572014 		0.7701933457650407  0.9266895069106105 		Uiso   ? 		N 		-0.36386
N 1.0  		0.3616435675000683 		0.5660516243007165  0.5433027610278367 		Uiso   ? 		N 		-0.36386
N 1.0  		0.9698647497029167 		0.3435077043870841  0.5817700888865446 		Uiso   ? 		N 		-0.36386
N 1.0  		0.29964922291693297 		0.5763568554323291  0.6267987335372058 		Uiso   ? 		N 		-0.36386
N 1.0  		0.24944752294508557 		0.7198940033369321  0.8839766211276975 		Uiso   ? 		N 		-0.40290
N 1.0  		0.38798395687311643 		0.048827166552164104  0.9264322003697495 		Uiso   ? 		N 		-0.40290
N 1.0  		0.3349715952317939 		0.5088821277848661  0.5386712432923402 		Uiso   ? 		N 		-0.40290
N 1.0  		0.9443538363325864 		0.2878103837471784  0.5843431542951537 		Uiso   ? 		N 		-0.40290
N 1.0  		0.27084355130251536 		0.5174698203945431  0.626541426996345 		Uiso   ? 		N 		-0.40290
N 1.0  		0.1544273912374244 		0.7304445971145354  0.6718273781878673 		Uiso   ? 		N 		-0.40290
N 1.0  		0.3624638725779376 		0.08023358523898323  0.9266895069106105 		Uiso   ? 		N 		-0.40290
N 1.0  		0.3047679295225175 		0.5385710079497498  0.5386712432923402 		Uiso   ? 		N 		-0.40290
N 1.0  		0.40823282088332463 		0.30989302188634804  0.5840858477542928 		Uiso   ? 		N 		-0.40290
N 1.0  		0.24178334924548742 		0.5451957993915006  0.6293717989458152 		Uiso   ? 		N 		-0.40290
N 1.0  		0.36947275319687334 		0.02625380312101286  0.888093525781472 		Uiso   ? 		N 		-0.40290
N 1.0  		0.22563713157337026 		0.8006183138678968  0.9302917984826633 		Uiso   ? 		N 		-0.40290
N 1.0  		0.16816609567414528 		0.25983904210423003  0.54420333392085 		Uiso   ? 		N 		-0.37884
N 1.0  		0.4353867145642747 		0.3663264304642262  0.5786824103962135 		Uiso   ? 		N 		-0.37884
N 1.0  		0.26985294230661994 		0.6026106585533418  0.6297577587571065 		Uiso   ? 		N 		-0.37884
N 1.0  		0.22200622947609314 		0.7495828835018158  0.8847485407502801 		Uiso   ? 		N 		-0.37884
N 1.0  		0.2839103903437791 		0.8283442928648543  0.9261748938288886 		Uiso   ? 		N 		-0.37884
N 1.0  		0.2262356618950725 		0.289282559623123  0.5463904395181678 		Uiso   ? 		N 		-0.37884
N 1.0  		0.9975751011102545 		0.4019040141328884  0.5782964505849221 		Uiso   ? 		N 		-0.37884
N 1.0  		0.1640922446845126 		0.2941898125429385  0.6289858391345238 		Uiso   ? 		N 		-0.37884
N 1.0  		0.28070446859116094 		0.7773088624987733  0.8839766211276975 		Uiso   ? 		N 		-0.37884
N 1.0  		0.3367754812176131 		0.7721562469329669  0.9386542610606433 		Uiso   ? 		N 		-0.37884
N 1.0  		0.281911268454359 		0.23064088723132792  0.5520511834171081 		Uiso   ? 		N 		-0.37884
N 1.0  		0.05287104806469922 		0.34203552851113944  0.571606480522538 		Uiso   ? 		N 		-0.37884
N 1.0  		0.7140111944594374 		0.233830601629208  0.6237110550468749 		Uiso   ? 		N 		-0.36946
N 1.0  		0.10580992864824423 		0.4661890273824713  0.6545878399501854 		Uiso   ? 		N 		-0.36946
N 1.0  		0.7179636805891356 		0.5846991853960154  0.7105520125874359 		Uiso   ? 		N 		-0.36946
N 1.0  		0.8799884839043929 		0.47526744528413  0.7580250693762761 		Uiso   ? 		N 		-0.36946
N 1.0  		0.47967204601731706 		0.24708018451270977  0.8025391009452156 		Uiso   ? 		N 		-0.36946
N 1.0  		0.30088613302753586 		0.9659927372656787  0.8408777755334929 		Uiso   ? 		N 		-0.36946
N 1.0  		0.03175078144048127 		0.8531259201099225  0.8878362192406112 		Uiso   ? 		N 		-0.36946
N 1.0  		0.7487058354771033 		0.6423594072038473  0.7077216406379659 		Uiso   ? 		N 		-0.36946
N 1.0  		0.9072979266896557 		0.5324369417999804  0.7607267880553158 		Uiso   ? 		N 		-0.36946
N 1.0  		0.5113868413534838 		0.30498576896653257  0.8004806486183282 		Uiso   ? 		N 		-0.36946
N 1.0  		0.32731636513906626 		0.021837275493178918  0.8451233334576982 		Uiso   ? 		N 		-0.36946
N 1.0  		0.05835701501789142 		0.9093139660418098  0.8914385108126641 		Uiso   ? 		N 		-0.36946
N 1.0  		0.6918810353926812 		0.5299833153400727  0.7041193490659129 		Uiso   ? 		N 		-0.37748
N 1.0  		0.8561534201901145 		0.4207969378741781  0.7500485666095875 		Uiso   ? 		N 		-0.37748
N 1.0  		0.6226990496267032 		0.5297379526940819  0.8085858046554473 		Uiso   ? 		N 		-0.37748
N 1.0  		0.2735044750745199 		0.9125036804396899  0.8299422475469037 		Uiso   ? 		N 		-0.37748
N 1.0  		0.011821553618735381 		0.7966925115320443  0.8796024099330617 		Uiso   ? 		N 		-0.37748
N 1.0  		0.8062697818647714 		0.5849445480420061  0.7142829574299193 		Uiso   ? 		N 		-0.37748
N 1.0  		0.9688028994612478 		0.4799293355579547  0.7554520039676669 		Uiso   ? 		N 		-0.37748
N 1.0  		0.5661796178780201 		0.24585337128275594  0.8047262065425335 		Uiso   ? 		N 		-0.37748
N 1.0  		0.38862930009989516 		0.968937089017568  0.8407491222630625 		Uiso   ? 		N 		-0.37748
N 1.0  		0.1228632430706404 		0.8619589753655904  0.882175475341671 		Uiso   ? 		N 		-0.37748
N 1.0  		0.7766378479816192 		0.6136519776229267  0.7100373995057142 		Uiso   ? 		N 		-0.37748
N 1.0  		0.9371182790225532 		0.5049563254490136  0.7598262151623025 		Uiso   ? 		N 		-0.37748
N 1.0  		0.537397644684186 		0.2745608008636765  0.8022817944043547 		Uiso   ? 		N 		-0.37319
N 1.0  		0.3588987581804465 		0.996172342722544  0.8408777755334929 		Uiso   ? 		N 		-0.37319
N 1.0  		0.09047541342409288 		0.8860045146726864  0.888093525781472 		Uiso   ? 		N 		-0.37319
N 1.0  		0.7472933138865097 		0.5562371184610855  0.7113239322100188 		Uiso   ? 		N 		-0.37319
N 1.0  		0.9105361171677275 		0.4475414662871725  0.7555806572380973 		Uiso   ? 		N 		-0.37319
N 1.0  		0.507873489762179 		0.21763666699381687  0.8045975532721029 		Uiso   ? 		N 		-0.37319
N 1.0  		0.3302157663249098 		0.937530670330749  0.8385620166657446 		Uiso   ? 		N 		-0.37319
N 1.0  		0.06659868274153452 		0.8293257434488174  0.8837193145868364 		Uiso   ? 		N 		-0.37319
N 1.0  		0.9162470726110701 		0.5550103052311317  0.7140256508890584 		Uiso   ? 		N 		-0.37319
N 1.0  		0.0802583222316133 		0.45588379625085884  0.7584110291875674 		Uiso   ? 		N 		-0.37319
N 1.0  		0.6752171375215519 		0.21616449111787223  0.8036969803790898 		Uiso   ? 		N 		-0.37319
N 1.0  		0.493423492773725 		0.9345863185788597  0.8452519867281286 		Uiso   ? 		N 		-0.37319
N 1.0  		0.9871248244247552 		0.5662969869467073  0.6720846847287282 		Uiso   ? 		N 		-0.37687
N 1.0  		0.8857980473840319 		0.5842084601040337  0.7147975705116412 		Uiso   ? 		N 		-0.37687
N 1.0  		0.05168883921010883 		0.48459122583177944  0.7569958432128324 		Uiso   ? 		N 		-0.37687
N 1.0  		0.6482906348106671 		0.24560800863676513  0.8033110205677984 		Uiso   ? 		N 		-0.37687
N 1.0  		0.4688519772041609 		0.9674649131416234  0.848982931570612 		Uiso   ? 		N 		-0.37687
N 1.0  		0.9597404720237792 		0.5952497791736187  0.6729852576217413 		Uiso   ? 		N 		-0.37687
N 1.0  		0.8066527219391497 		0.6715575620767495  0.7104233593170055 		Uiso   ? 		N 		-0.37687
N 1.0  		0.9659480223595551 		0.5626165472568457  0.7622706273004812 		Uiso   ? 		N 		-0.37687
N 1.0  		0.568597649262245 		0.33271174796349007  0.8006093018887587 		Uiso   ? 		N 		-0.37687
N 1.0  		0.3849128075701658 		0.05373441947197959  0.8448660269168373 		Uiso   ? 		N 		-0.37687
N 1.0  		0.11550440538174755 		0.9424379232505644  0.8896373650266377 		Uiso   ? 		N 		-0.37687
N 1.0  		0.2652611191499297 		0.6958484640298361  0.7023182032798865 		Uiso   ? 		N 		-0.37687
N 1.0  		0.9349008724378491 		0.5876435371479046  0.7545514310746537 		Uiso   ? 		N 		-0.37068
N 1.0  		0.5416952182739445 		0.36092845225242914  0.7934047187446528 		Uiso   ? 		N 		-0.37068
N 1.0  		0.34657293195243205 		0.07140052998331534  0.8525852231426648 		Uiso   ? 		N 		-0.37068
N 1.0  		0.085331287871944 		0.9662380999116695  0.8970992547116043 		Uiso   ? 		N 		-0.37068
N 1.0  		0.13029957116421725 		0.500294435175189  0.7162127564863763 		Uiso   ? 		N 		-0.37068
N 1.0  		0.7980445081468667 		0.3955245853371283  0.7512064460434618 		Uiso   ? 		N 		-0.37068
N 1.0  		0.5682418163353781 		0.500294435175189  0.7986795028323018 		Uiso   ? 		N 		-0.37068
N 1.0  		0.21937593523751667 		0.8879674158406126  0.8363749110684269 		Uiso   ? 		N 		-0.37068
N 1.0  		0.95531030114629 		0.7733830601629209  0.8837193145868364 		Uiso   ? 		N 		-0.37068
N 1.0  		0.66679510236701 		0.4742859947001669  0.7120958518326015 		Uiso   ? 		N 		-0.37068
N 1.0  		0.9973730967617199 		0.7002649916576701  0.7536508581816403 		Uiso   ? 		N 		-0.37068
N 1.0  		0.6014138679803793 		0.47526744528413  0.8013812215113415 		Uiso   ? 		N 		-0.37068
N 1.0  		0.41430046951652455 		0.1847580724310531  0.8478250521367379 		Uiso   ? 		N 		-0.36812
N 1.0  		0.9825631761655371 		0.7424673667680832  0.8864210332658761 		Uiso   ? 		N 		-0.36812
N 1.0  		0.10296605665636989 		0.4443517518892924  0.7087508668014095 		Uiso   ? 		N 		-0.36812
N 1.0  		0.9408414263382274 		0.6747472764746295  0.7594402553510111 		Uiso   ? 		N 		-0.36812
N 1.0  		0.542329994342973 		0.4433703013053293  0.8000946888070368 		Uiso   ? 		N 		-0.36812
N 1.0  		0.35707438750802706 		0.15997644518598492  0.8448660269168373 		Uiso   ? 		N 		-0.36812
N 1.0  		0.9259000283603158 		0.7149867504171166  0.8848771940207106 		Uiso   ? 		N 		-0.36812
N 1.0  		0.8029543606250276 		0.7495828835018158  0.7104233593170055 		Uiso   ? 		N 		-0.36812
N 1.0  		0.9666638112191844 		0.6430954951418196  0.758282375917137 		Uiso   ? 		N 		-0.36812
N 1.0  		0.5736137061595928 		0.41711649818431645  0.8017671813226328 		Uiso   ? 		N 		-0.36812
N 1.0  		0.38097556321517034 		0.12660712533123958  0.8467958259732942 		Uiso   ? 		N 		-0.36812
N 1.0  		0.1121777027052856 		0.020365099617234275  0.8922104304352468 		Uiso   ? 		N 		-0.36812
N 1.0  		0.24024702799001077 		0.7252919815487291  0.7132537312664756 		Uiso   ? 		N 		-0.51390
N 1.0  		0.9099196506233624 		0.617577779958779  0.7594402553510111 		Uiso   ? 		N 		-0.51390
N 1.0  		0.5153469238660725 		0.38472862891353427  0.7997087289957455 		Uiso   ? 		N 		-0.51390
N 1.0  		0.32226205000036606 		0.10182549808617136  0.848982931570612 		Uiso   ? 		N 		-0.51390
N 1.0  		0.0558285102245612 		0.9905290018647561  0.8887367921336244 		Uiso   ? 		N 		-0.51390
N 1.0  		0.04585153563794592 		0.4117185199725194  0.711967198562171 		Uiso   ? 		N 		-0.51390
N 1.0  		0.8829931479124777 		0.647021297477672  0.7580250693762761 		Uiso   ? 		N 		-0.51390
N 1.0  		0.48613997032757944 		0.41343605849445486  0.7954631710715402 		Uiso   ? 		N 		-0.51390
N 1.0  		0.3008866846385928 		0.13642163117087058  0.847053132514155 		Uiso   ? 		N 		-0.51390
N 1.0  		0.869138272518798 		0.6860339581902052  0.8834620080459755 		Uiso   ? 		N 		-0.51390
N 1.0  		0.07255637725165254 		0.4693787417803514  0.7151835303229326 		Uiso   ? 		N 		-0.51390
N 1.0  		0.7404175175162944 		0.3695161448621062  0.7528789385590577 		Uiso   ? 		N 		-0.51390
N 1.0  		0.5121744720788652 		0.47060555501030527  0.7970070103167058 		Uiso   ? 		N 		-0.48158
N 1.0  		0.1624762255373816 		0.8617136127195997  0.8410064288039234 		Uiso   ? 		N 		-0.48158
N 1.0  		0.8980906956146808 		0.743939542644028  0.8817895155303795 		Uiso   ? 		N 		-0.48158
N 1.0  		0.8342824338578874 		0.6430954951418196  0.7133823845369062 		Uiso   ? 		N 		-0.48158
N 1.0  		0.9954748717295222 		0.5370988320738052  0.7604694815144548 		Uiso   ? 		N 		-0.48158
N 1.0  		0.5950663022830385 		0.3027775051526156  0.8011239149704805 		Uiso   ? 		N 		-0.48158
N 1.0  		0.41667844079946115 		0.02674452841299441  0.8444800671055459 		Uiso   ? 		N 		-0.48158
N 1.0  		0.14670710440776663 		0.9181470212974777  0.8865496865363066 		Uiso   ? 		N 		-0.48158
N 1.0  		0.9143166925124078 		0.6403965060359211  0.7110666256691579 		Uiso   ? 		N 		-0.48158
N 1.0  		0.08127873282298015 		0.5424968102856021  0.7536508581816403 		Uiso   ? 		N 		-0.48158
N 1.0  		0.6764500382852483 		0.3027775051526156  0.7986795028323018 		Uiso   ? 		N 		-0.48158
N 1.0  		0.4987477907638282 		0.024290901953086665  0.8447373736464068 		Uiso   ? 		N 		-0.48158
N 1.0  		0.9877771957394794 		0.6521739130434783  0.667581820263662 		Uiso   ? 		N 		-0.49584
N 1.0  		0.8625912832618938 		0.6168416920208067  0.7191717817062768 		Uiso   ? 		N 		-0.49584
N 1.0  		0.02495075494896934 		0.5152615565806262  0.7492766469870047 		Uiso   ? 		N 		-0.49584
N 1.0  		0.6209632234777077 		0.27382471292570426  0.7939193318263748 		Uiso   ? 		N 		-0.49584
N 1.0  		0.4409769057676616 		0.9954362547845718  0.8505267708157775 		Uiso   ? 		N 		-0.49584
N 1.0  		0.17813988885181092 		0.8972911963882619  0.8765147314427306 		Uiso   ? 		N 		-0.49584
N 1.0  		0.9484312097081359 		0.5326823044459712  0.7187858218949854 		Uiso   ? 		N 		-0.49584
N 1.0  		0.6076408477468207 		0.42864854254588286  0.7643290796273686 		Uiso   ? 		N 		-0.49584
N 1.0  		0.8636365121798463 		0.5245853371282756  0.792890105662931 		Uiso   ? 		N 		-0.49584
N 1.0  		0.5213643029010888 		0.9075964275198745  0.8386906699361751 		Uiso   ? 		N 		-0.49584
N 1.0  		0.017433073087824713 		0.5410246344096575  0.6750437099486287 		Uiso   ? 		N 		-0.49584
N 1.0  		0.0004381282913804574 		0.6426047698498382  0.7137683443481975 		Uiso   ? 		N 		-0.49584
N 1.0  		0.6627328571071744 		0.540533909117676  0.7577677628354151 		Uiso   ? 		N 		-0.47669
N 1.0  		0.7616585973893897 		0.3027775051526156  0.8049835130833943 		Uiso   ? 		N 		-0.47669
N 1.0  		0.5815596957583689 		0.018647561095298852  0.8444800671055459 		Uiso   ? 		N 		-0.47669
N 1.0  		0.07264776220705921 		0.6531553636274414  0.6700262324018408 		Uiso   ? 		N 		-0.47669
N 1.0  		0.9439574240184079 		0.6134066149769359  0.7135110378073366 		Uiso   ? 		N 		-0.47669
N 1.0  		0.6057586110933271 		0.5115811168907646  0.754937390885945 		Uiso   ? 		N 		-0.47669
N 1.0  		0.7050523906521851 		0.2745608008636765  0.8016385280522024 		Uiso   ? 		N 		-0.47669
N 1.0  		0.525048477696443 		0.9927372656786733  0.8452519867281286 		Uiso   ? 		N 		-0.47669
N 1.0  		0.01700539829520553 		0.6234664834625577  0.6677104735340925 		Uiso   ? 		N 		-0.47669
N 1.0  		0.9741129462825155 		0.5861713612719599  0.713896997618628 		Uiso   ? 		N 		-0.47669
N 1.0  		0.6350072316001002 		0.48508195112376096  0.7591829488101502 		Uiso   ? 		N 		-0.47669
N 1.0  		0.7327390436389392 		0.2453626459907744  0.8063986990581294 		Uiso   ? 		N 		-0.47669
N 1.0  		0.5516967515441338 		0.9623122975758172  0.8455092932689896 		Uiso   ? 		N 		-0.47569
N 1.0  		0.04456937152307888 		0.5940229659436648  0.6679677800749534 		Uiso   ? 		N 		-0.47569
N 1.0  		0.9707849453909954 		0.6713121994307588  0.7128677714551843 		Uiso   ? 		N 		-0.47569
N 1.0  		0.6345314133623124 		0.5699774266365689  0.7540368179929318 		Uiso   ? 		N 		-0.47569
N 1.0  		0.7337923235757382 		0.3324663853174993  0.8026677542156461 		Uiso   ? 		N 		-0.47569
N 1.0  		0.5551567814284398 		0.049563254490136426  0.8443514138351154 		Uiso   ? 		N 		-0.47569
N 1.0  		0.04505091963375374 		0.6821081558543527  0.6691256595088275 		Uiso   ? 		N 		-0.47569
N 1.0  		0.024575492591436876 		0.6968299146137992  0.7047626154180652 		Uiso   ? 		N 		-0.47569
N 1.0  		0.6880312803051751 		0.5962312297575818  0.7595689086214417 		Uiso   ? 		N 		-0.47569
N 1.0  		0.28849674327059377 		0.36068308960643836  0.806270045787699 		Uiso   ? 		N 		-0.47569
N 1.0  		0.6068581189563695 		0.07434488173520463  0.8363749110684269 		Uiso   ? 		N 		-0.47569
N 1.0  		0.09827903419031092 		0.7027186181175779  0.677874081898099 		Uiso   ? 		N 		-0.47569
N 1.0  		0.9937822870907648 		0.4674158406124252  0.7146689172412107 		Uiso   ? 		N 		-0.26572
N 1.0  		0.6630470230657612 		0.3707429580920601  0.7587969889988588 		Uiso   ? 		N 		-0.26572
N 1.0  		0.4320985464560648 		0.4710962803022868  0.7993227691844541 		Uiso   ? 		N 		-0.26572
N 1.0  		0.5813249033983575 		0.8558249092158211  0.8438368007533936 		Uiso   ? 		N 		-0.26572
N 1.0  		0.30673934364444755 		0.7456570811659634  0.8816608622599491 		Uiso   ? 		N 		-0.26572
N 1.0  		0.9587903287562065 		0.4097556188045932  0.7176279424611114 		Uiso   ? 		N 		-0.26572
N 1.0  		0.8022709541498406 		0.6457944842477182  0.7510777927730312 		Uiso   ? 		N 		-0.26572
N 1.0  		0.4021975546345673 		0.4117185199725194  0.8002233420774673 		Uiso   ? 		N 		-0.26572
N 1.0  		0.7189687357468107 		0.1349494552949259  0.8426789213195194 		Uiso   ? 		N 		-0.26572
N 1.0  		0.2767902083777814 		0.6887329472961037  0.8823041286121014 		Uiso   ? 		N 		-0.26572
N 1.0  		0.9355506952886361 		0.44189812542938467  0.7124818116438929 		Uiso   ? 		N 		-0.26572
N 1.0  		0.7746500398539509 		0.6759740897045834  0.75352220491121 		Uiso   ? 		N 		-0.26572
N 1.0  		0.37393916982168895 		0.44189812542938467  0.7975216233984276 		Uiso   ? 		N 		-0.27006
N 1.0  		0.6873169846535485 		0.16046717047796646  0.8467958259732942 		Uiso   ? 		N 		-0.27006
N 1.0  		0.019234296950717572 		0.46005496123270195  0.6665525941002184 		Uiso   ? 		N 		-0.27006
N 1.0  		0.07882023571043256 		0.7262734321326921  0.7162127564863763 		Uiso   ? 		N 		-0.27006
N 1.0  		0.7437852052071023 		0.6180685052507607  0.7521070189364749 		Uiso   ? 		N 		-0.27006
N 1.0  		0.3437687467598455 		0.3832564530375896  0.7990654626435931 		Uiso   ? 		N 		-0.27006
N 1.0  		0.6615519141426086 		0.10256158602414368  0.8429362278603802 		Uiso   ? 		N 		-0.27006
N 1.0  		0.40031906768496844 		0.9991166944744333  0.891953123894386 		Uiso   ? 		N 		-0.27006
N 1.0  		0.050298896134096716 		0.7525272352537051  0.7054058817702175 		Uiso   ? 		N 		-0.27006
N 1.0  		0.7175466376043342 		0.651437825105506  0.7521070189364749 		Uiso   ? 		N 		-0.27006
N 1.0  		0.8116420449909868 		0.4129453332024733  0.7997087289957455 		Uiso   ? 		N 		-0.27006
N 1.0  		0.630145522567108 		0.1285700264991658  0.8433221876716717 		Uiso   ? 		N 		-0.27006
N 1.0  		0.12629168618342695 		0.7608695652173914  0.6727279510808805 		Uiso   ? 		N 		-0.25244
N 1.0  		0.9129332582383177 		0.4769849838060654  0.7123531583734625 		Uiso   ? 		N 		-0.25244
N 1.0  		0.5770959089314461 		0.37393267248994017  0.7590542955397198 		Uiso   ? 		N 		-0.25244
N 1.0  		0.839801448465568 		0.4701148297183237  0.7973929701279971 		Uiso   ? 		N 		-0.25244
N 1.0  		0.6566050046630528 		0.1857395230150162  0.8442227605646849 		Uiso   ? 		N 		-0.25244
N 1.0  		0.9857956367707217 		0.48459122583177944  0.669254312779258 		Uiso   ? 		N 		-0.25244
N 1.0  		0.9702403530374162 		0.4998037098832074  0.7110666256691579 		Uiso   ? 		N 		-0.25244
N 1.0  		0.6355816578741844 		0.40165865148689767  0.758539682457998 		Uiso   ? 		N 		-0.25244
N 1.0  		0.40322676284878206 		0.5000490725291982  0.7966210505054144 		Uiso   ? 		N 		-0.25244
N 1.0  		0.5521420215824487 		0.8833055255667878  0.8444800671055459 		Uiso   ? 		N 		-0.25244
N 1.0  		0.04356007970051928 		0.515506919226617  0.6656520212072051 		Uiso   ? 		N 		-0.25244
N 1.0  		0.01557981009184578 		0.43404652075767985  0.722002153655747 		Uiso   ? 		N 		-0.25244
N 1.0  		0.6867292321236865 		0.34203552851113944  0.7481187675531307 		Uiso   ? 		N 		-0.28498
N 1.0  		0.4596296503385059 		0.44116203749141236  0.8052408196242553 		Uiso   ? 		N 		-0.28498
N 1.0  		0.10664544317578267 		0.8307979193247621  0.8357316447162746 		Uiso   ? 		N 		-0.28498
N 1.0  		0.33293856542489497 		0.7164589262930612  0.8762574249018698 		Uiso   ? 		N 		-0.28498
N 1.0  		0.1969439135370502 		0.24217293159289432  0.9246310545837231 		Uiso   ? 		N 		-0.28498
N 1.0  		0.6420020393592569 		0.706889783099421  0.5449752535434327 		Uiso   ? 		N 		-0.28498
N 1.0  		0.24391790885462095 		0.4818922367258809  0.581641435616114 		Uiso   ? 		N 		-0.28498
N 1.0  		0.06419727268102604 		0.6983020904897439  0.6216526027199875 		Uiso   ? 		N 		-0.28498
N 1.0  		0.9650748178856094 		0.9255079006772009  0.6732425641626023 		Uiso   ? 		N 		-0.28498
N 1.0  		0.22568384646060344 		0.3000785160467171  0.9257889340175972 		Uiso   ? 		N 		-0.28498
N 1.0  		0.6769699259712308 		0.7657768181372069  0.5481915853041942 		Uiso   ? 		N 		-0.28498
N 1.0  		0.2702547111916851 		0.5388163705957406  0.5793256767483658 		Uiso   ? 		N 		-0.28498
N 1.0  		0.08965124498333976 		0.754735499067622  0.6252548942920404 		Uiso   ? 		N 		-0.26027
N 1.0  		0.9934795808779522 		0.9831681224850328  0.6715700716470063 		Uiso   ? 		N 		-0.26027
N 1.0  		0.1723070325786224 		0.18524879772303465  0.9220579891751138 		Uiso   ? 		N 		-0.26027
N 1.0  		0.612405669269497 		0.653646088919423  0.5354549115315785 		Uiso   ? 		N 		-0.26027
N 1.0  		0.37685046870537475 		0.7613602905093729  0.5762379982580348 		Uiso   ? 		N 		-0.26027
N 1.0  		0.03987148993122436 		0.6428501324958289  0.6156058990097558 		Uiso   ? 		N 		-0.26027
N 1.0  		0.9409527276852894 		0.8683384041613506  0.6677104735340925 		Uiso   ? 		N 		-0.26027
N 1.0  		0.2853574204718304 		0.24560800863676513  0.9309350648348156 		Uiso   ? 		N 		-0.26027
N 1.0  		0.7260231466969105 		0.7002649916576701  0.5398291227262142 		Uiso   ? 		N 		-0.26027
N 1.0  		0.3310717488551604 		0.48238296201786246  0.5852437271881671 		Uiso   ? 		N 		-0.26027
N 1.0  		0.15444217837617116 		0.7037000687015409  0.6253835475624708 		Uiso   ? 		N 		-0.26027
N 1.0  		0.05255220748915995 		0.9257532633231917  0.6714414183765759 		Uiso   ? 		N 		-0.26027
N 1.0  		0.25386121848288107 		0.271861811757778  0.9282333461557759 		Uiso   ? 		N 		-0.47122
N 1.0  		0.7001438207479369 		0.7326528609284524  0.5454898666251545 		Uiso   ? 		N 		-0.47122
N 1.0  		0.30058985428269014 		0.5110903915987831  0.5825420085091273 		Uiso   ? 		N 		-0.47122
N 1.0  		0.12227563652480108 		0.7294631465305722  0.623196441965153 		Uiso   ? 		N 		-0.47122
N 1.0  		0.023925783399639022 		0.9551967808420846  0.6702835389427017 		Uiso   ? 		N 		-0.47122
N 1.0  		0.22734479531891966 		0.21542840317989992  0.929648532130511 		Uiso   ? 		N 		-0.47122
N 1.0  		0.6681267248259921 		0.6749926391206204  0.5421448815939626 		Uiso   ? 		N 		-0.47122
N 1.0  		0.2741632415321774 		0.45441162037491417  0.5829279683204187 		Uiso   ? 		N 		-0.47122
N 1.0  		0.09590596484230485 		0.672048287368731  0.6235824017764444 		Uiso   ? 		N 		-0.47122
N 1.0  		0.9948623008730746 		0.8975365590342527  0.6724706445400196 		Uiso   ? 		N 		-0.47122
N 1.0  		0.3917223782885271 		0.21567376582589068  0.9372390750859082 		Uiso   ? 		N 		-0.47122
N 1.0  		0.8358865553071761 		0.6718029247227403  0.5385425900219096 		Uiso   ? 		N 		-0.47122
N 1.0  		0.4365450790142589 		0.450240455393071  0.58331392813171 		Uiso   ? 		N 		-0.43426
N 1.0  		0.26582820868413515 		0.6821081558543527  0.6262841204554841 		Uiso   ? 		N 		-0.43426
N 1.0  		0.3910487433581675 		0.16120325841593877  0.8910525510013728 		Uiso   ? 		N 		-0.43426
N 1.0  		0.36361074495711376 		0.24487192069879282  0.9365958087337559 		Uiso   ? 		N 		-0.43426
N 1.0  		0.8066226607006666 		0.7012464422416332  0.5377706703993269 		Uiso   ? 		N 		-0.43426
N 1.0  		0.41095925602821565 		0.48066542349592706  0.5834425814021406 		Uiso   ? 		N 		-0.43426
N 1.0  		0.23737260779866365 		0.7093434095593287  0.6276993064302191 		Uiso   ? 		N 		-0.43426
N 1.0  		0.36224269844174917 		0.19113750122681325  0.8906665911900814 		Uiso   ? 		N 		-0.43426
N 1.0  		0.2838520207178272 		0.33099420944155467  0.9293912255896501 		Uiso   ? 		N 		-0.43426
N 1.0  		0.7352496612185282 		0.7888409068603396  0.5461331329773069 		Uiso   ? 		N 		-0.43426
N 1.0  		0.3292969178608112 		0.5685052507606243  0.5809981692639618 		Uiso   ? 		N 		-0.43426
N 1.0  		0.1463889291022733 		0.7849151045244872  0.6304010251092589 		Uiso   ? 		N 		-0.43426
N 1.0  		0.05145133571824928 		0.011532044361566397  0.6696402725905494 		Uiso   ? 		N 		-0.46720
N 1.0  		0.7511970882760942 		0.3464520561389734  0.9405840601171002 		Uiso   ? 		N 		-0.46720
N 1.0  		0.7097448510230857 		0.8173029737952695  0.5366127909654528 		Uiso   ? 		N 		-0.46720
N 1.0  		0.3010538071476692 		0.5957405044656002  0.5752087720945911 		Uiso   ? 		N 		-0.46720
N 1.0  		0.11825090290231638 		0.8089606438315832  0.6368336886307818 		Uiso   ? 		N 		-0.46720
N 1.0  		0.023298035418555966 		0.03852193542055158  0.6651374081254833 		Uiso   ? 		N 		-0.46720
N 1.0  		0.6107459863012056 		0.15776818137206794  0.9293912255896501 		Uiso   ? 		N 		-0.46720
N 1.0  		0.5602464820514759 		0.6283737363823731  0.5431741077574063 		Uiso   ? 		N 		-0.46720
N 1.0  		0.32039101344963505 		0.7321621356364708  0.5820273954274054 		Uiso   ? 		N 		-0.46720
N 1.0  		0.9847819299742212 		0.6185592305427422  0.6246116279398881 		Uiso   ? 		N 		-0.46720
N 1.0  		0.8868987241619983 		0.8465011286681716  0.6732425641626023 		Uiso   ? 		N 		-0.46720
N 1.0  		0.14711601503976618 		0.13274119148100896  0.9344087031364381 		Uiso   ? 		N 		-0.46720
N 1.0  		0.7602606846284865 		0.9306605162430073  0.5336537657455521 		Uiso   ? 		N 		-0.46006
N 1.0  		0.35188721543858437 		0.7059083325154578  0.5820273954274054 		Uiso   ? 		N 		-0.46006
N 1.0  		0.1837461330839691 		0.9191284718814409  0.6247402812103185 		Uiso   ? 		N 		-0.46006
N 1.0  		0.9107998998691417 		0.8131318088134263  0.6733712174330327 		Uiso   ? 		N 		-0.46006
N 1.0  		0.5824967724131757 		0.10084404750220827  0.9345373564068686 		Uiso   ? 		N 		-0.46006
N 1.0  		0.7026642421973868 		0.8987633722642066  0.5372560573176051 		Uiso   ? 		N 		-0.46006
N 1.0  		0.2939644006991224 		0.6754833644126019  0.5844718075655843 		Uiso   ? 		N 		-0.46006
N 1.0  		0.1268311492840976 		0.8958190205123172  0.6262841204554841 		Uiso   ? 		N 		-0.46006
N 1.0  		0.8541543473096163 		0.7890862695063304  0.6720846847287282 		Uiso   ? 		N 		-0.46006
N 1.0  		0.28198505816406993 		0.4109824320345471  0.9291339190487893 		Uiso   ? 		N 		-0.46006
N 1.0  		0.7352886337388482 		0.8734910197271568  0.5378993236697573 		Uiso   ? 		N 		-0.46006
N 1.0  		0.3250356223434126 		0.649229561291589  0.581898742156975 		Uiso   ? 		N 		-0.46006
N 1.0  		0.15055270416434358 		0.8629404259495534  0.6279566129710801 		Uiso   ? 		N 		-0.46036
N 1.0  		0.04893162854776705 		0.09446461870644814  0.6711841118357149 		Uiso   ? 		N 		-0.46036
N 1.0  		0.7234775659439078 		0.375159485719894  0.9359525423816036 		Uiso   ? 		N 		-0.46036
N 1.0  		0.6778148710666296 		0.8418392383943469  0.542273534864393 		Uiso   ? 		N 		-0.46036
N 1.0  		0.2687798596371546 		0.6183138678967515  0.5847291141064451 		Uiso   ? 		N 		-0.46036
N 1.0  		0.09421824981344429 		0.8403670625184022  0.6320735176248549 		Uiso   ? 		N 		-0.46036
N 1.0  		0.9918527995801265 		0.06109529885170282  0.6695116193201189 		Uiso   ? 		N 		-0.46036
N 1.0  		0.5272312454008123 		0.07360879379723231  0.9421278993622658 		Uiso   ? 		N 		-0.46036
N 1.0  		0.6456636033149958 		0.8646579644714889  0.5387998965627705 		Uiso   ? 		N 		-0.46036
N 1.0  		0.2368827490261305 		0.6433408577878104  0.5862729533516108 		Uiso   ? 		N 		-0.46036
N 1.0  		0.06973654465732887 		0.8730002944351752  0.6301437185683978 		Uiso   ? 		N 		-0.46036
N 1.0  		0.7970180757145673 		0.7640592796152714  0.6697689258609799 		Uiso   ? 		N 		-0.46036
N 1.0  		0.5539601587371034 		0.13004220237511044  0.9365958087337559 		Uiso   ? 		N 		-0.47014
N 1.0  		0.5026018961752079 		0.5989302188634802  0.5430454544869758 		Uiso   ? 		N 		-0.47014
N 1.0  		0.26295891774569646 		0.7027186181175779  0.5853723804585974 		Uiso   ? 		N 		-0.47014
N 1.0  		0.9304233047191925 		0.590587888899794  0.6283425727823715 		Uiso   ? 		N 		-0.47014
N 1.0  		0.8303429820159215 		0.8222102267150849  0.6707981520244236 		Uiso   ? 		N 		-0.47014
N 1.0  		0.31184977191320745 		0.3032682304445971  0.9299058386713719 		Uiso   ? 		N 		-0.47014
N 1.0  		0.7580971836868717 		0.7571891255275297  0.5438173741095585 		Uiso   ? 		N 		-0.47014
N 1.0  		0.35847979967671995 		0.5410246344096575  0.582156048697836 		Uiso   ? 		N 		-0.47014
N 1.0  		0.17935728819779292 		0.7616056531553637  0.6278279597006495 		Uiso   ? 		N 		-0.47014
N 1.0  		0.08092410113607068 		0.9829227598390422  0.6684823931566752 		Uiso   ? 		N 		-0.47014
N 1.0  		0.3940834686047355 		0.3032682304445971  0.9374963816267692 		Uiso   ? 		N 		-0.47014
N 1.0  		0.8341445936582591 		0.7584159387574837  0.5349402984498568 		Uiso   ? 		N 		-0.47014
N 1.0  		0.44371243050344567 		0.5397978211797037  0.5865302598924717 		Uiso   ? 		N 		-0.46702
N 1.0  		0.26423299851668336 		0.7677397193051331  0.6264127737259145 		Uiso   ? 		N 		-0.46702
N 1.0  		0.39110531112418334 		0.24928844832662678  0.8927250435169687 		Uiso   ? 		N 		-0.46702
N 1.0  		0.3393415299733279 		0.27750515261556585  0.9399407937649479 		Uiso   ? 		N 		-0.46702
N 1.0  		0.780815549919446 		0.7299538718225538  0.532495886311678 		Uiso   ? 		N 		-0.46702
N 1.0  		0.3866900410444297 		0.5132986554127  0.5784251038553526 		Uiso   ? 		N 		-0.46702
N 1.0  		0.207477719152054 		0.734125036804397  0.6332313970587289 		Uiso   ? 		N 		-0.46702
N 1.0  		0.10936442792180573 		0.9586318578859555  0.6759442828416419 		Uiso   ? 		N 		-0.46702
N 1.0  		0.41582956769111135 		0.18696633624497008  0.9453442311230272 		Uiso   ? 		N 		-0.46702
N 1.0  		0.3661777029847406 		0.6511924624595152  0.5496067712789293 		Uiso   ? 		N 		-0.46702
N 1.0  		0.6245130804593504 		0.7535086858376682  0.5767526113397565 		Uiso   ? 		N 		-0.46702
N 1.0  		0.2969082279512733 		0.6575718912552754  0.6349038895743249 		Uiso   ? 		N 		-0.46702
N 1.0  		0.4224727301793639 		0.1386298949847875  0.8811462491782273 		Uiso   ? 		N 		-0.45311
N 1.0  		0.48034568094767666 		0.30155069192266176  0.9360811956520341 		Uiso   ? 		N 		-0.45311
N 1.0  		0.42494778396556065 		0.7640592796152714  0.5408583488896579 		Uiso   ? 		N 		-0.45311
N 1.0  		0.5252077274957292 		0.5319462165079989  0.5892319785715113 		Uiso   ? 		N 		-0.45311
N 1.0  		0.3524492893788703 		0.7682304445971145  0.6247402812103185 		Uiso   ? 		N 		-0.45311
N 1.0  		0.476337941950909 		0.24806163509667287  0.8911812042718031 		Uiso   ? 		N 		-0.45311
N 1.0  		0.420977101970188 		0.2733339876337227  0.9374963816267692 		Uiso   ? 		N 		-0.45311
N 1.0  		0.3660370546781633 		0.7363333006183139  0.5350689517202872 		Uiso   ? 		N 		-0.45311
N 1.0  		0.4680714559006802 		0.5069192266169399  0.5861443000811802 		Uiso   ? 		N 		-0.45311
N 1.0  		0.2943556514353589 		0.7400137403081756  0.6258981606441927 		Uiso   ? 		N 		-0.45311
N 1.0  		0.4199113560406016 		0.2193542055157523  0.8889940986744854 		Uiso   ? 		N 		-0.45311
N 1.0  		0.4503308069901462 		0.24364510746883897  0.939426180683226 		Uiso   ? 		N 		-0.45311
N 1.0  		0.392963557389048 		0.706889783099421  0.5425308414052539 		Uiso   ? 		N 		-0.46678
N 1.0  		0.49422021308999975 		0.47379526940818534  0.5844718075655843 		Uiso   ? 		N 		-0.46678
N 1.0  		0.32520558528447174 		0.7120423986652273  0.6270560400780668 		Uiso   ? 		N 		-0.46678
N 1.0  		0.4498784598549641 		0.1908921385808225  0.8905379379196509 		Uiso   ? 		N 		-0.46678
N 1.0  		0.4510489169957349 		0.3305034841495731  0.9369817685450473 		Uiso   ? 		N 		-0.46678
N 1.0  		0.3947112489108522 		0.7932574344881737  0.5394431629149229 		Uiso   ? 		N 		-0.46678
N 1.0  		0.49853538192545405 		0.5635979978408088  0.5879454458672068 		Uiso   ? 		N 		-0.46678
N 1.0  		0.3226048653233887 		0.7969378741780353  0.6278279597006495 		Uiso   ? 		N 		-0.46678
N 1.0  		0.44838185772380884 		0.2779958779075474  0.8933683098691211 		Uiso   ? 		N 		-0.46678
N 1.0  		0.5027173851782325 		0.35479438610265973  0.9264322003697495 		Uiso   ? 		N 		-0.46678
N 1.0  		0.4469843182649062 		0.8170576111492788  0.5467763993294592 		Uiso   ? 		N 		-0.46678
N 1.0  		0.0464729854511968 		0.5923054274217294  0.5887173654897894 		Uiso   ? 		N 		-0.46678
N 1.0  		0.37617047095711564 		0.8241731278830111  0.6189508840409478 		Uiso   ? 		N 		-0.45825
N 1.0  		0.5043899397663457 		0.3020414172146433  0.8992863603089223 		Uiso   ? 		N 		-0.45825
N 1.0  		0.47664012887769824 		0.1351948179409167  0.938010994708491 		Uiso   ? 		N 		-0.45825
N 1.0  		0.4197460030664277 		0.595985867111591  0.5463904395181678 		Uiso   ? 		N 		-0.45825
N 1.0  		0.1835116650170367 		0.701491804887624  0.5847291141064451 		Uiso   ? 		N 		-0.45825
N 1.0  		0.35789840996475747 		0.6053096476592404  0.6293717989458152 		Uiso   ? 		N 		-0.45825
N 1.0  		0.24155446506741948 		0.8146039846893709  0.6688683529679667 		Uiso   ? 		N 		-0.45825
N 1.0  		0.4465683138521513 		0.07802532142506625  0.9335081302434249 		Uiso   ? 		N 		-0.45825
N 1.0  		0.5608471552100813 		0.8641672391795073  0.5363554844245918 		Uiso   ? 		N 		-0.45825
N 1.0  		0.1545592419211539 		0.6435862204338013  0.5812554758048227 		Uiso   ? 		N 		-0.45825
N 1.0  		0.48937176566271795 		0.8725095691431938  0.6271846933484972 		Uiso   ? 		N 		-0.45825
N 1.0  		0.21077944083401962 		0.7564530375895575  0.6715700716470063 		Uiso   ? 		N 		-0.45825
N 1.0  		0.42094962152067594 		0.10795956423594073  0.9287479592374979 		Uiso   ? 		N 		-0.36073
N 1.0  		0.5341090709489418 		0.8948375699283542  0.5335251124751217 		Uiso   ? 		N 		-0.36073
N 1.0  		0.12688138655724768 		0.6745019138286388  0.581898742156975 		Uiso   ? 		N 		-0.36073
N 1.0  		0.4636720605406418 		0.9044067131219944  0.6304010251092589 		Uiso   ? 		N 		-0.36073
N 1.0  		0.42626737838382334 		0.05569732063990579  0.8865496865363066 		Uiso   ? 		N 		-0.36073
N 1.0  		0.5602786371179406 		0.37982137599371874  0.9287479592374979 		Uiso   ? 		N 		-0.36073
N 1.0  		0.5027951842348499 		0.8381587987044853  0.5408583488896579 		Uiso   ? 		N 		-0.36073
N 1.0  		0.09820719232455871 		0.617577779958779  0.5813841290752532 		Uiso   ? 		N 		-0.36073
N 1.0  		0.43253779465344716 		0.8472372166061439  0.6235824017764444 		Uiso   ? 		N 		-0.36073
N 1.0  		0.3318277761251343 		0.06698400235548141  0.6715700716470063 		Uiso   ? 		N 		-0.36073
N 1.0  		0.5310716835794475 		0.4085288055746394  0.9287479592374979 		Uiso   ? 		N 		-0.36073
N 1.0  		0.47878012639167367 		0.8730002944351752  0.5403437358079362 		Uiso   ? 		N 		-0.36073
N 1.0  		0.5752240444427585 		0.6426047698498382  0.5880740991376371 		Uiso   ? 		N 		-0.37450
N 1.0  		0.40613488032351813 		0.8781529100009816  0.6280852662415105 		Uiso   ? 		N 		-0.37450
N 1.0  		0.5307836831714262 		0.3582294631465306  0.8898946715674986 		Uiso   ? 		N 		-0.37450
N 1.0  		0.3920778379133933 		0.13691235646285213  0.9308064115643853 		Uiso   ? 		N 		-0.37450
N 1.0  		0.3334421237552064 		0.5954951418196095  0.5409870021600884 		Uiso   ? 		N 		-0.37450
N 1.0  		0.5996155658834246 		0.6990381784277163  0.5842145010247234 		Uiso   ? 		N 		-0.37450
N 1.0  		0.4369099045569179 		0.936303857100795  0.6249975877511794 		Uiso   ? 		N 		-0.37450
N 1.0  		0.39471423532685757 		0.08268721169889097  0.8878362192406112 		Uiso   ? 		N 		-0.37450
N 1.0  		0.4485525672688693 		0.16316615958386496  0.9382683012493519 		Uiso   ? 		N 		-0.37450
N 1.0  		0.3909552322497457 		0.6229757581705762  0.5444606404617109 		Uiso   ? 		N 		-0.37450
N 1.0  		0.15780316227211266 		0.7316714103444892  0.581898742156975 		Uiso   ? 		N 		-0.37450
N 1.0  		0.3280211165638436 		0.6335263519481794  0.6310442914614112 		Uiso   ? 		N 		-0.37450
N 1.0  		0.453241651237876 		0.11262145450976545  0.8851345005615715 		Uiso   ? 		N 		-0.37564
N 1.0  		0.5003047426899278 		0.10305231131612523  0.9453442311230272 		Uiso   ? 		N 		-0.37564
N 1.0  		0.4469924016087864 		0.5697320639905782  0.5381566302106182 		Uiso   ? 		N 		-0.37564
N 1.0  		0.21001318738326233 		0.672048287368731  0.578553757125783 		Uiso   ? 		N 		-0.37564
N 1.0  		0.8754096137014796 		0.5591814702129748  0.6351611961151858 		Uiso   ? 		N 		-0.37564
N 1.0  		0.26516213781163256 		0.7831975660025519  0.6651374081254833 		Uiso   ? 		N 		-0.37564
N 1.0  		0.8780742058434237 		0.9193738345274316  0.7093941331535619 		Uiso   ? 		N 		-0.37564
N 1.0  		0.04766481986659182 		0.8131318088134263  0.7521070189364749 		Uiso   ? 		N 		-0.37564
N 1.0  		0.6462558844777875 		0.5832270095200707  0.799580075725315 		Uiso   ? 		N 		-0.37564
N 1.0  		0.4648227795988137 		0.29345372460496616  0.8449946801872676 		Uiso   ? 		N 		-0.37564
N 1.0  		0.19439721287804557 		0.18353125920109925  0.8847485407502801 		Uiso   ? 		N 		-0.37564
N 1.0  		0.9095107723163964 		0.9762979683972913  0.7124818116438929 		Uiso   ? 		N 		-0.37564
N 1.0  		0.07539924299651385 		0.8703013053292767  0.7523643254773358 		Uiso   ? 		N 		-0.37076
N 1.0  		0.6741129873665905 		0.640641868681912  0.7946912514489575 		Uiso   ? 		N 		-0.37076
N 1.0  		0.49028554952397535 		0.3516046717047797  0.8452519867281286 		Uiso   ? 		N 		-0.37076
N 1.0  		0.22021922445700187 		0.24070075571694965  0.8832047015051147 		Uiso   ? 		N 		-0.37076
N 1.0  		0.8508217041261772 		0.8614682500736089  0.7043766556067738 		Uiso   ? 		N 		-0.37076
N 1.0  		0.022521945772904117 		0.7581705761114929  0.7458030086853823 		Uiso   ? 		N 		-0.37076
N 1.0  		0.7864524560100661 		0.8585238983217196  0.809615030818891 		Uiso   ? 		N 		-0.37076
N 1.0  		0.44308854588524643 		0.2402100304249681  0.8516846502496517 		Uiso   ? 		N 		-0.37076
N 1.0  		0.16929600575263803 		0.13077829031308275  0.8968419481707435 		Uiso   ? 		N 		-0.37076
N 1.0  		0.9623406726988389 		0.9132397683776623  0.7150548770525021 		Uiso   ? 		N 		-0.37076
N 1.0  		0.13577602621559376 		0.8168122485032879  0.7575104562945543 		Uiso   ? 		N 		-0.37076
N 1.0  		0.7348402146166173 		0.5844538227500247  0.7988081561027321 		Uiso   ? 		N 		-0.37076
N 1.0  		0.5530325939841122 		0.2986063401707724  0.8429362278603802 		Uiso   ? 		N 		-0.39233
N 1.0  		0.2815357787788486 		0.18696633624497008  0.8924677369761078 		Uiso   ? 		N 		-0.39233
N 1.0  		0.9342378369902735 		0.9441554617724998  0.7142829574299193 		Uiso   ? 		N 		-0.39233
N 1.0  		0.1062251051230424 		0.8435567769162824  0.754680084345084 		Uiso   ? 		N 		-0.39233
N 1.0  		0.704358320044147 		0.6131612523309452  0.799580075725315 		Uiso   ? 		N 		-0.39233
N 1.0  		0.520719300651277 		0.32535086858376683  0.8433221876716717 		Uiso   ? 		N 		-0.39233
N 1.0  		0.25183810620483205 		0.21469231524192758  0.8868069930771675 		Uiso   ? 		N 		-0.39233
N 1.0  		0.904231760655591 		0.8879674158406126  0.7108093191282969 		Uiso   ? 		N 		-0.39233
N 1.0  		0.0787929825788985 		0.7861419177544412  0.7531362450999186 		Uiso   ? 		N 		-0.39233
N 1.0  		0.6782668772248446 		0.5567278437530672  0.8035683271086593 		Uiso   ? 		N 		-0.39233
N 1.0  		0.49647453069207603 		0.26793600942192564  0.8434508409421022 		Uiso   ? 		N 		-0.39233
N 1.0  		0.22346621255792143 		0.15752281872607715  0.8910525510013728 		Uiso   ? 		N 		-0.39233
N 1.0  		0.07422107581386345 		0.8891942290705664  0.7099087462352837 		Uiso   ? 		N 		-0.52172
N 1.0  		0.24467559200050837 		0.7898223574443027  0.7594402553510111 		Uiso   ? 		N 		-0.52172
N 1.0  		0.8383529897795814 		0.5547649425851409  0.7989368093731627 		Uiso   ? 		N 		-0.52172
N 1.0  		0.6583526961848571 		0.2721071744037688  0.8464098661620028 		Uiso   ? 		N 		-0.52172
N 1.0  		0.16096105423855112 		0.8977819216802434  0.6689970062383971 		Uiso   ? 		N 		-0.52172
N 1.0  		0.04341928540991935 		0.9147119442536069  0.7140256508890584 		Uiso   ? 		N 		-0.52172
N 1.0  		0.21534595870313447 		0.8182844243792325  0.7577677628354151 		Uiso   ? 		N 		-0.52172
N 1.0  		0.8149096637625293 		0.5886249877318678  0.7988081561027321 		Uiso   ? 		N 		-0.52172
N 1.0  		0.6344098535094336 		0.3032682304445971  0.8458952530802809 		Uiso   ? 		N 		-0.52172
N 1.0  		0.13373225094188823 		0.9274708018451271  0.6705408454835626 		Uiso   ? 		N 		-0.52172
N 1.0  		0.9665696504818623 		0.002453626459907744  0.7160841032159457 		Uiso   ? 		N 		-0.52172
N 1.0  		0.13167907742535617 		0.8999901854941604  0.7564812301311106 		Uiso   ? 		N 		-0.52172
N 1.0  		0.7326075339321767 		0.6700853862008048  0.7926327991220701 		Uiso   ? 		N 		-0.50868
N 1.0  		0.5476366324373131 		0.3830110903915988  0.8465385194324333 		Uiso   ? 		N 		-0.50868
N 1.0  		0.27778279754266927 		0.2721071744037688  0.8855204603728629 		Uiso   ? 		N 		-0.50868
N 1.0  		0.44006995500140517 		0.03017960545686525  0.7028328163616083 		Uiso   ? 		N 		-0.50868
N 1.0  		0.10393316222462612 		0.9235449995092747  0.7632998534639249 		Uiso   ? 		N 		-0.50868
N 1.0  		0.704232945837306 		0.6953577387378547  0.7882585879274344 		Uiso   ? 		N 		-0.50868
N 1.0  		0.5201208026546085 		0.410000981450584  0.8501408110044861 		Uiso   ? 		N 		-0.50868
N 1.0  		0.24738839223768827 		0.2941898125429385  0.8763860781723002 		Uiso   ? 		N 		-0.50868
N 1.0  		0.30320997134940497 		0.8388948866424576  0.7115812387508796 		Uiso   ? 		N 		-0.50868
N 1.0  		0.9706766794688606 		0.7331435862204339  0.7564812301311106 		Uiso   ? 		N 		-0.50868
N 1.0  		0.729872642141405 		0.8354598095985867  0.8031823672973679 		Uiso   ? 		N 		-0.50868
N 1.0  		0.3893697122931658 		0.21861811757778  0.8455092932689896 		Uiso   ? 		N 		-0.50868
N 1.0  		0.11167781274491359 		0.10648738835999608  0.8907952444605118 		Uiso   ? 		N 		-0.52919
N 1.0  		0.8291772808260586 		0.8079791932476201  0.7109379723987274 		Uiso   ? 		N 		-0.52919
N 1.0  		0.16340127415146896 		0.03484149573068996  0.7577677628354151 		Uiso   ? 		N 		-0.52919
N 1.0  		0.7595943864380057 		0.8065070173716754  0.7989368093731627 		Uiso   ? 		N 		-0.52919
N 1.0  		0.5753748375961637 		0.5179605456865248  0.839462589558758 		Uiso   ? 		N 		-0.52919
N 1.0  		0.1399033282123598 		0.07581705761114928  0.8920817771648164 		Uiso   ? 		N 		-0.52919
N 1.0  		0.2727460453246312 		0.7822161154185888  0.7146689172412107 		Uiso   ? 		N 		-0.52919
N 1.0  		0.10595390434779396 		0.00834232996368633  0.759954868432733 		Uiso   ? 		N 		-0.52919
N 1.0  		0.7034131600454601 		0.7782903130827364  0.7975216233984276 		Uiso   ? 		N 		-0.52919
N 1.0  		0.5174367487569652 		0.490479929335558  0.8381760568544533 		Uiso   ? 		N 		-0.52919
N 1.0  		0.0827823307170473 		0.04784571596820101  0.8896373650266377 		Uiso   ? 		N 		-0.52919
N 1.0  		0.96708174679201 		0.08465011286681716  0.7124818116438929 		Uiso   ? 		N 		-0.52919
N 1.0  		0.13214070914437587 		0.9782608695652175  0.7560952703198192 		Uiso   ? 		N 		-0.52336
N 1.0  		0.7332904534463739 		0.7500736087937973  0.7972643168575667 		Uiso   ? 		N 		-0.52336
N 1.0  		0.5460631728464862 		0.46103641181666505  0.8397198960996188 		Uiso   ? 		N 		-0.52336
N 1.0  		0.2811206836380058 		0.34890568259888116  0.8835906613164061 		Uiso   ? 		N 		-0.52336
N 1.0  		0.40795155659520366 		0.05348905682598882  0.7083649069901182 		Uiso   ? 		N 		-0.52336
N 1.0  		0.07603401906554241 		0.9527431543821769  0.7638144665456469 		Uiso   ? 		N 		-0.52336
N 1.0  		0.6758583577424353 		0.7206300912749043  0.7930187589333615 		Uiso   ? 		N 		-0.52336
N 1.0  		0.48934308397324844 		0.43429188340367064  0.8421643082377976 		Uiso   ? 		N 		-0.52336
N 1.0  		0.22268539928639539 		0.32510550593777604  0.8830760482346841 		Uiso   ? 		N 		-0.52336
N 1.0  		0.21493943386716155 		0.7566984002355482  0.7150548770525021 		Uiso   ? 		N 		-0.52336
N 1.0  		0.04861679731913415 		0.9812052213171067  0.7635571600047859 		Uiso   ? 		N 		-0.52336
N 1.0  		0.6462504955818674 		0.7481107076258711  0.7948199047193879 		Uiso   ? 		N 		-0.52336
N 1.0  		0.4609860911240735 		0.4629993129845913  0.8431935344012413 		Uiso   ? 		N 		-0.48054
N 1.0  		0.026577032601917298 		0.020855824909215823  0.8853918071024324 		Uiso   ? 		N 		-0.48054
N 1.0  		0.24753705923807856 		0.8150947099813525  0.7151835303229326 		Uiso   ? 		N 		-0.48054
N 1.0  		0.9136783617324289 		0.7054176072234764  0.7581537226467066 		Uiso   ? 		N 		-0.48054
N 1.0  		0.6716146574707325 		0.80478947884974  0.7991941159140236 		Uiso   ? 		N 		-0.48054
N 1.0  		0.3327482314562247 		0.19334576504073023  0.8442227605646849 		Uiso   ? 		N 		-0.48054
N 1.0  		0.05585582800616257 		0.07728923348709393  0.8871929528884589 		Uiso   ? 		N 		-0.48054
N 1.0  		0.9912930957947217 		0.9711453528314851  0.7171133293793894 		Uiso   ? 		N 		-0.48054
N 1.0  		0.163273887450602 		0.8752085582490923  0.7594402553510111 		Uiso   ? 		N 		-0.48054
N 1.0  		0.7621255856792959 		0.6428501324958289  0.792890105662931 		Uiso   ? 		N 		-0.48054
N 1.0  		0.5779805731511661 		0.35700264991657676  0.8457665998098505 		Uiso   ? 		N 		-0.48054
N 1.0  		0.30959009774024465 		0.2473255471587006  0.8892514052153463 		Uiso   ? 		N 		-0.48054
N 1.0  		0.07115370853984138 		0.9718814407694573  0.7177565957315417 		Uiso   ? 		N 		-0.44413
N 1.0  		0.2446904927982441 		0.8756992835410737  0.754937390885945 		Uiso   ? 		N 		-0.44413
N 1.0  		0.845104158546957 		0.646039846893709  0.7980362364801495 		Uiso   ? 		N 		-0.44413
N 1.0  		0.6650293286385205 		0.36068308960643836  0.8438368007533936 		Uiso   ? 		N 		-0.44413
N 1.0  		0.1642619156575264 		0.9851310236529591  0.6701548856722712 		Uiso   ? 		N 		-0.44413
N 1.0  		0.016451115730754584 		0.9419471979585828  0.7239319527122039 		Uiso   ? 		N 		-0.44413
N 1.0  		0.19408447547739413 		0.8514083815879872  0.7636858132752163 		Uiso   ? 		N 		-0.44413
N 1.0  		0.7901978731883885 		0.6178231426047699  0.8027964074860765 		Uiso   ? 		N 		-0.44413
N 1.0  		0.6101318409027998 		0.33418392383943474  0.8398485493700493 		Uiso   ? 		N 		-0.44413
N 1.0  		0.33569950910724344 		0.2183727549317892  0.898128480875048 		Uiso   ? 		N 		-0.44413
N 1.0  		0.10616865101601553 		0.8680930415153597  0.6992305247895554 		Uiso   ? 		N 		-0.44413
N 1.0  		0.7787679926168121 		0.7628324663853175  0.7656156123316732 		Uiso   ? 		N 		-0.44413
N 1.0  		0.03627233727337731 		0.8587692609677103  0.7903170402543218 		Uiso   ? 		N 		-0.46048
N 1.0  		0.6824182186191613 		0.24119148100893123  0.8552869418217045 		Uiso   ? 		N 		-0.46048
N 1.0  		0.18918889085195678 		0.8734910197271568  0.659219357685682 		Uiso   ? 		N 		-0.46048
N 1.0  		0.16047411723195615 		0.9745804298753559  0.7140256508890584 		Uiso   ? 		N 		-0.46048
N 1.0  		0.8304513615970455 		0.8730002944351752  0.753264898370349 		Uiso   ? 		N 		-0.46048
N 1.0  		0.9274734879511429 		0.6369614289920503  0.8038256336495202 		Uiso   ? 		N 		-0.46048
N 1.0  		0.750570736527913 		0.354549023456669  0.843965454023824 		Uiso   ? 		N 		-0.46048
N 1.0  		0.24882420662183136 		0.9834134851310238  0.6707981520244236 		Uiso   ? 		N 		-0.46048
N 1.0  		0.10155459032171082 		0.9451369123564629  0.7181425555428331 		Uiso   ? 		N 		-0.46048
N 1.0  		0.7724956775121512 		0.8420846010403377  0.7569958432128324 		Uiso   ? 		N 		-0.46048
N 1.0  		0.8705256348058392 		0.6131612523309452  0.7989368093731627 		Uiso   ? 		N 		-0.46048
N 1.0  		0.692192393244319 		0.3300127588575915  0.8428075745899499 		Uiso   ? 		N 		-0.46048
N 1.0  		0.19113147730039465 		0.9564235940720386  0.6716987249174368 		Uiso   ? 		N 		-0.47065
N 1.0  		0.1330267205880759 		0.9201099224654039  0.7110666256691579 		Uiso   ? 		N 		-0.47065
N 1.0  		0.8053654285713742 		0.8173029737952695  0.75635257686068 		Uiso   ? 		N 		-0.47065
N 1.0  		0.8952526994797163 		0.5810187457061537  0.7993227691844541 		Uiso   ? 		N 		-0.47065
N 1.0  		0.7166412290550023 		0.296888801648837  0.8474390923254465 		Uiso   ? 		N 		-0.47065
N 1.0  		0.21917737194094347 		0.9262439886151733  0.6691256595088275 		Uiso   ? 		N 		-0.47065
N 1.0  		0.12975048250274188 		0.001962901167926195  0.7127391181847539 		Uiso   ? 		N 		-0.47065
N 1.0  		0.7978028983329997 		0.8994994602021789  0.7540368179929318 		Uiso   ? 		N 		-0.47065
N 1.0  		0.9022075607965737 		0.6705761114927864  0.8021531411339242 		Uiso   ? 		N 		-0.47065
N 1.0  		0.7239641296485022 		0.387182255373442  0.843965454023824 		Uiso   ? 		N 		-0.47065
N 1.0  		0.2228586896204269 		0.015212484051428011  0.6700262324018408 		Uiso   ? 		N 		-0.47065
N 1.0  		0.18066759803221796 		0.027725978996957508  0.7196863947879988 		Uiso   ? 		N 		-0.47065
N 1.0  		0.8527091836915683 		0.9277161644911179  0.7604694815144548 		Uiso   ? 		N 		-0.44767
N 1.0  		0.4522918166222366 		0.691677299047993  0.8052408196242553 		Uiso   ? 		N 		-0.44767
N 1.0  		0.7787782834476626 		0.40926489351261164  0.8503981175453471 		Uiso   ? 		N 		-0.44767
N 1.0  		0.2780080133507978 		0.03754048483658848  0.6664239408297878 		Uiso   ? 		N 		-0.44767
N 1.0  		0.16387287240826026 		0.8143586220433802  0.7129964247256148 		Uiso   ? 		N 		-0.44767
N 1.0  		0.8328006188654787 		0.7034547060555502  0.7555806572380973 		Uiso   ? 		N 		-0.44767
N 1.0  		0.5930919017451031 		0.8062616547256847  0.7971356635871362 		Uiso   ? 		N 		-0.44767
N 1.0  		0.7451259172569774 		0.19236431445676713  0.847310439055016 		Uiso   ? 		N 		-0.44767
N 1.0  		0.48196668336369347 		0.08465011286681716  0.8839766211276975 		Uiso   ? 		N 		-0.44767
N 1.0  		0.13533663203418866 		0.754735499067622  0.7165987162976677 		Uiso   ? 		N 		-0.44767
N 1.0  		0.9664516620238219 		0.980959858671116  0.7581537226467066 		Uiso   ? 		N 		-0.44767
N 1.0  		0.5645556613710315 		0.7466385317499264  0.7976502766688581 		Uiso   ? 		N 		-0.44767
N 1.0  		0.8876598806848808 		0.467661203258416  0.8402345091813406 		Uiso   ? 		N 		-0.47310
N 1.0  		0.4556627503720616 		0.028216704288939055  0.8889940986744854 		Uiso   ? 		N 		-0.47310
N 1.0  		0.10634216866802515 		0.7834429286485426  0.7111952789395882 		Uiso   ? 		N 		-0.47310
N 1.0  		0.939292216779041 		0.010795956423594072  0.7578964161058457 		Uiso   ? 		N 		-0.47310
N 1.0  		0.5346454986246855 		0.774364510746884  0.7966210505054144 		Uiso   ? 		N 		-0.47310
N 1.0  		0.8569895676626653 		0.49514181960938264  0.840620468992632 		Uiso   ? 		N 		-0.47310
N 1.0  		0.18373905598710194 		0.787368730984395  0.6724706445400196 		Uiso   ? 		N 		-0.47310
N 1.0  		0.2396834118328004 		0.052262243596034944  0.7195577415175682 		Uiso   ? 		N 		-0.47310
N 1.0  		0.9101806252178275 		0.9529885170281677  0.7564812301311106 		Uiso   ? 		N 		-0.47310
N 1.0  		0.5078179772520979 		0.7164589262930612  0.7977789299392885 		Uiso   ? 		N 		-0.47310
N 1.0  		0.8305629549121525 		0.4384630483855138  0.8416496951560757 		Uiso   ? 		N 		-0.47310
N 1.0  		0.558290715331283 		0.32952203356561  0.8922104304352468 		Uiso   ? 		N 		-0.47310
N 1.0  		0.21229905943182448 		0.08121503582294633  0.7109379723987274 		Uiso   ? 		N 		-0.28429
N 1.0  		0.8806713710935563 		0.981941309255079  0.754937390885945 		Uiso   ? 		N 		-0.28429
N 1.0  		0.9801447714793116 		0.7444302679360094  0.7973929701279971 		Uiso   ? 		N 		-0.28429
N 1.0  		0.8012902626827951 		0.4661890273824713  0.8471817857845856 		Uiso   ? 		N 		-0.28429
N 1.0  		0.297527534927621 		0.09102954166257729  0.6720846847287282 		Uiso   ? 		N 		-0.28429
N 1.0  		0.07648894698969555 		0.8104328197075278  0.7037333892546215 		Uiso   ? 		N 		-0.28429
N 1.0  		0.7493753150765338 		0.707871233683384  0.7557093105085277 		Uiso   ? 		N 		-0.28429
N 1.0  		0.007271770732325933 		0.8033173029737953  0.7964923972349839 		Uiso   ? 		N 		-0.28429
N 1.0  		0.8279863066736539 		0.5221317106683679  0.8455092932689896 		Uiso   ? 		N 		-0.28429
N 1.0  		0.15627369079552522 		0.8182844243792325  0.667581820263662 		Uiso   ? 		N 		-0.28429
N 1.0  		0.13589919293546432 		0.8408577878103838  0.7066924144745222 		Uiso   ? 		N 		-0.28429
N 1.0  		0.8081545669822024 		0.7336343115124154  0.7586683357284284 		Uiso   ? 		N 		-0.28429
N 1.0  		0.5629604512035796 		0.8322700952007067  0.7991941159140236 		Uiso   ? 		N 		-0.27942
N 1.0  		0.7147162378522601 		0.2173913043478261  0.8471817857845856 		Uiso   ? 		N 		-0.27942
N 1.0  		0.21484045252886427 		0.8440475022082639  0.6660379810184964 		Uiso   ? 		N 		-0.27942
N 1.0  		0.19263957150235786 		0.7885955442143489  0.7216161938444556 		Uiso   ? 		N 		-0.27942
N 1.0  		0.8600710891304217 		0.6759740897045834  0.748247420823561 		Uiso   ? 		N 		-0.27942
N 1.0  		0.6192911235255505 		0.7770634998527824  0.789545120631739 		Uiso   ? 		N 		-0.27942
N 1.0  		0.27807203151568144 		0.168564137795662  0.8512986904383603 		Uiso   ? 		N 		-0.27942
N 1.0  		0.5108319904940877 		0.0603592109137305  0.8798597164739227 		Uiso   ? 		N 		-0.27942
N 1.0  		0.3636985752015701 		0.5761114927863382  0.924888361124584 		Uiso   ? 		N 		-0.27942
N 1.0  		0.8044688499699238 		0.03778584748257925  0.5378993236697573 		Uiso   ? 		N 		-0.27942
N 1.0  		0.40352244097364914 		0.8185297870252233  0.581641435616114 		Uiso   ? 		N 		-0.27942
N 1.0  		0.23911999066853443 		0.031161056040828347  0.6233250952355834 		Uiso   ? 		N 		-0.27942
N 1.0  		0.12384546007072227 		0.2595936794582393  0.6742717903260459 		Uiso   ? 		N 		-0.27477
N 1.0  		0.3934440179187545 		0.6347531651781334  0.9263035470993191 		Uiso   ? 		N 		-0.27477
N 1.0  		0.8312547043742312 		0.09348316812248504  0.5431741077574063 		Uiso   ? 		N 		-0.27477
N 1.0  		0.4348122559651568 		0.8764353714790462  0.5782964505849221 		Uiso   ? 		N 		-0.27477
N 1.0  		0.26580076055965673 		0.0900480910786142  0.624868934480749 		Uiso   ? 		N 		-0.27477
N 1.0  		0.15212754330418427 		0.3170085386200805  0.6719560314582976 		Uiso   ? 		N 		-0.27477
N 1.0  		0.3339378583846493 		0.5204141721464325  0.9185843508734913 		Uiso   ? 		N 		-0.27477
N 1.0  		0.7808755264123896 		0.9846402983609776  0.5254199564380025 		Uiso   ? 		N 		-0.27477
N 1.0  		0.5599792906231339 		0.09618215722838357  0.5746941590128691 		Uiso   ? 		N 		-0.27477
N 1.0  		0.2139559019681333 		0.9735989792913927  0.6174070447957822 		Uiso   ? 		N 		-0.27477
N 1.0  		0.09748458601107389 		0.2038963588183335  0.6803184940362776 		Uiso   ? 		N 		-0.27477
N 1.0  		0.4484076176473402 		0.5734125036804398  0.9261748938288886 		Uiso   ? 		N 		-0.27477
N 1.0  		0.8932744679039308 		0.04073019923446855  0.5398291227262142 		Uiso   ? 		N 		-0.27383
N 1.0  		0.48683386262656114 		0.815585435273334  0.5883314056784981 		Uiso   ? 		N 		-0.27383
N 1.0  		0.3283922559154806 		0.03631367160663461  0.6285998793232324 		Uiso   ? 		N 		-0.27383
N 1.0  		0.20974843075986874 		0.25885759152026694  0.6700262324018408 		Uiso   ? 		N 		-0.27383
N 1.0  		0.42112187328266076 		0.6038374717832957  0.927976039614915 		Uiso   ? 		N 		-0.27383
N 1.0  		0.8618680763284303 		0.06673863970949064  0.5397004694557839 		Uiso   ? 		N 		-0.27383
N 1.0  		0.4603980789511999 		0.84601040337619  0.5843431542951537 		Uiso   ? 		N 		-0.27383
N 1.0  		0.29603729561436526 		0.060849936205712045  0.6289858391345238 		Uiso   ? 		N 		-0.27383
N 1.0  		0.18189095456906515 		0.2902640102070861  0.6725992978104499 		Uiso   ? 		N 		-0.27383
N 1.0  		0.39122967908401124 		0.5461772499754638  0.9243737480428621 		Uiso   ? 		N 		-0.27383
N 1.0  		0.8350164832332585 		0.01005986848562175  0.534168378827274 		Uiso   ? 		N 		-0.27383
N 1.0  		0.4290513228916758 		0.7888409068603396  0.5883314056784981 		Uiso   ? 		N 		-0.27383
N 1.0  		0.27051758462118713 		0.0034350770438708413  0.6249975877511794 		Uiso   ? 		N 		-0.26985
N 1.0  		0.15217838119731292 		0.23211306310727256  0.6742717903260459 		Uiso   ? 		N 		-0.26985
N 1.0  		0.5598089220550406 		0.5488762390813623  0.9314496779165375 		Uiso   ? 		N 		-0.26985
N 1.0  		0.9961233796813628 		0.005888703503778585  0.5390572031036316 		Uiso   ? 		N 		-0.26985
N 1.0  		0.595665368574652 		0.7812346648346257  0.5815127823456836 		Uiso   ? 		N 		-0.26985
N 1.0  		0.4384704758440352 		0.014231033467464915  0.6252548942920404 		Uiso   ? 		N 		-0.26985
N 1.0  		0.5607629933355645 		0.498086171361272  0.8815322089895187 		Uiso   ? 		N 		-0.26985
N 1.0  		0.5309371384477579 		0.5778290313082737  0.9319642909982593 		Uiso   ? 		N 		-0.26985
N 1.0  		0.9711180861442916 		0.03704975954460693  0.5415016152418102 		Uiso   ? 		N 		-0.26985
N 1.0  		0.5657640034511539 		0.8106781823535185  0.5825420085091273 		Uiso   ? 		N 		-0.26985
N 1.0  		0.4081594044756144 		0.04073019923446855  0.6239683615877357 		Uiso   ? 		N 		-0.26985
N 1.0  		0.5327411704175998 		0.5270389635881834  0.8833333547755451 		Uiso   ? 		N 		-0.26985
N 1.0  		0.4493382178252584 		0.6602708803611739  0.9336367835138553 		Uiso   ? 		N 		-0.45568
N 1.0  		0.8886868000781698 		0.12292668564137797  0.5484488918450552 		Uiso   ? 		N 		-0.45568
N 1.0  		0.4940012141157481 		0.9051428010599667  0.581898742156975 		Uiso   ? 		N 		-0.45568
N 1.0  		0.32229308516082855 		0.1197369712434979  0.6305296783796892 		Uiso   ? 		N 		-0.45568
N 1.0  		0.20901197890458292 		0.34620669349298266  0.6686110464271057 		Uiso   ? 		N 		-0.45568
N 1.0  		0.9119386075704823 		0.6857885955442143  0.923215868608988 		Uiso   ? 		N 		-0.45568
N 1.0  		0.8591118072630342 		0.15089802728432625  0.5514079170649557 		Uiso   ? 		N 		-0.45568
N 1.0  		0.46478546295440715 		0.9321326921189519  0.5723784001451209 		Uiso   ? 		N 		-0.45568
N 1.0  		0.2930203929314711 		0.1474629502404554  0.6242256681285967 		Uiso   ? 		N 		-0.45568
N 1.0  		0.17675562663976416 		0.3722151339680047  0.6652660613959137 		Uiso   ? 		N 		-0.45568
N 1.0  		0.7839234965807798 		0.4892531161056041  0.9254029742063058 		Uiso   ? 		N 		-0.45568
N 1.0  		0.7256012017771785 		0.9556875061340663  0.5301801274439297 		Uiso   ? 		N 		-0.45568
N 1.0  		0.5036360386493868 		0.07189125527529688  0.5798402898300876 		Uiso   ? 		N 		-0.50686
N 1.0  		0.15893805561949115 		0.9532338796741584  0.6243543213990271 		Uiso   ? 		N 		-0.50686
N 1.0  		0.04279958844768281 		0.17739719305132987  0.672856604351311 		Uiso   ? 		N 		-0.50686
N 1.0  		0.30926163160390074 		0.467661203258416  0.924888361124584 		Uiso   ? 		N 		-0.50686
N 1.0  		0.9163287183466832 		0.2627833938561194  0.5434314142982672 		Uiso   ? 		N 		-0.50686
N 1.0  		0.5285843911184414 		0.04146628717244087  0.5793256767483658 		Uiso   ? 		N 		-0.50686
N 1.0  		0.35567223808223924 		0.2595936794582393  0.6283425727823715 		Uiso   ? 		N 		-0.50686
N 1.0  		0.07288937202092617 		0.14918048876239082  0.6731139108921719 		Uiso   ? 		N 		-0.50686
N 1.0  		0.7531244006247957 		0.43232898223574445  0.9323502508095507 		Uiso   ? 		N 		-0.50686
N 1.0  		0.8591507797833542 		0.2355481401511434  0.5440746806504195 		Uiso   ? 		N 		-0.50686
N 1.0  		0.4709245311424368 		0.014967121405437237  0.582156048697836 		Uiso   ? 		N 		-0.50686
N 1.0  		0.29837161976002935 		0.23211306310727256  0.6274419998893581 		Uiso   ? 		N 		-0.50686
N 1.0  		0.016911838177862105 		0.11924624595151635  0.6720846847287282 		Uiso   ? 		N 		-0.53454
N 1.0  		0.44823140554737056 		0.740504465600157  0.9310637181052461 		Uiso   ? 		N 		-0.53454
N 1.0  		0.8864036548026013 		0.20463244675630582  0.5447179470025718 		Uiso   ? 		N 		-0.53454
N 1.0  		0.49859876714532536 		0.9848856610069684  0.5790683702075049 		Uiso   ? 		N 		-0.53454
N 1.0  		0.3267855536772208 		0.20266954558837963  0.6298864120275369 		Uiso   ? 		N 		-0.53454
N 1.0  		0.20531361759046068 		0.42423201491804896  0.675686976300781 		Uiso   ? 		N 		-0.53454
N 1.0  		0.8887383199252326 		0.7137599371871627  0.9336367835138553 		Uiso   ? 		N 		-0.53454
N 1.0  		0.8288336052400456 		0.1778879183433114  0.5458758264364459 		Uiso   ? 		N 		-0.53454
N 1.0  		0.44148656727286073 		0.9586318578859555  0.5812554758048227 		Uiso   ? 		N 		-0.53454
N 1.0  		0.26784195504439123 		0.17445284129944058  0.6302723718388283 		Uiso   ? 		N 		-0.53454
N 1.0  		0.14826715640886046 		0.3989596623809991  0.6702835389427017 		Uiso   ? 		N 		-0.53454
N 1.0  		0.6950307626812842 		0.40411227794680543  0.9332508237025638 		Uiso   ? 		N 		-0.53454
N 1.0  		0.8030024227362407 		0.2078221611541859  0.5465190927885982 		Uiso   ? 		N 		-0.48233
N 1.0  		0.4143563720124944 		0.9897929139267838  0.5826706617795577 		Uiso   ? 		N 		-0.48233
N 1.0  		0.24107100143781957 		0.20463244675630582  0.6274419998893581 		Uiso   ? 		N 		-0.48233
N 1.0  		0.9605033490726425 		0.08636765138875258  0.6682250866158144 		Uiso   ? 		N 		-0.48233
N 1.0  		0.7258627279827006 		0.4615271371086466  0.9278473863444846 		Uiso   ? 		N 		-0.48233
N 1.0  		0.6684778831359065 		0.9213367356953578  0.532238579770817 		Uiso   ? 		N 		-0.48233
N 1.0  		0.4457155450558841 		0.04784571596820101  0.5803549029118095 		Uiso   ? 		N 		-0.48233
N 1.0  		0.10257073192315963 		0.9301697909510257  0.6260268139146231 		Uiso   ? 		N 		-0.48233
N 1.0  		0.9835301190658826 		0.14304642261262146  0.6704121922131322 		Uiso   ? 		N 		-0.48233
N 1.0  		0.4770248708120126 		0.6310727254882718  0.9332508237025638 		Uiso   ? 		N 		-0.48233
N 1.0  		0.9198566297587566 		0.09814505839630976  0.542273534864393 		Uiso   ? 		N 		-0.48233
N 1.0  		0.5177797100640106 		0.8715281185592306  0.5847291141064451 		Uiso   ? 		N 		-0.48233
N 1.0  		0.3524814767703685 		0.0929924428305035  0.6316875578135634 		Uiso   ? 		N 		-0.50293
N 1.0  		0.23943693240903668 		0.3182353518500344  0.6674531669932315 		Uiso   ? 		N 		-0.50293
N 1.0  		0.5590636725769069 		0.6345078025321426  0.9302917984826633 		Uiso   ? 		N 		-0.50293
N 1.0  		0.0005736796700829341 		0.09421925606045736  0.5397004694557839 		Uiso   ? 		N 		-0.50293
N 1.0  		0.5963834785802407 		0.8680930415153597  0.5806122094526703 		Uiso   ? 		N 		-0.50293
N 1.0  		0.43595956629640087 		0.09888114633428208  0.6237110550468749 		Uiso   ? 		N 		-0.50293
N 1.0  		0.561708867613219 		0.5820001962901168  0.8898946715674986 		Uiso   ? 		N 		-0.50293
N 1.0  		0.5061443350830164 		0.6089900873491021  0.9265608536401799 		Uiso   ? 		N 		-0.50293
N 1.0  		0.9483450999896603 		0.07140052998331534  0.5461331329773069 		Uiso   ? 		N 		-0.50293
N 1.0  		0.5436766312586798 		0.8425753263323192  0.5910331243575377 		Uiso   ? 		N 		-0.50293
N 1.0  		0.37958992145410997 		0.06943762881538915  0.6201087634748219 		Uiso   ? 		N 		-0.50293
N 1.0  		0.2638376247745513 		0.28756502110118753  0.6589620511448211 		Uiso   ? 		N 		-0.50293
N 1.0  		0.5883543333539607 		0.5213956227303955  0.9369817685450473 		Uiso   ? 		N 		-0.44187
N 1.0  		0.5356683440210007 		0.979978408087153  0.5232328508406848 		Uiso   ? 		N 		-0.44187
N 1.0  		0.7998543023146294 		0.09102954166257729  0.580226249641379 		Uiso   ? 		N 		-0.44187
N 1.0  		0.47163890812801873 		0.9900382765727747  0.6192081905818086 		Uiso   ? 		N 		-0.44187
N 1.0  		0.5878450451507622 		0.4693787417803514  0.875228198738426 		Uiso   ? 		N 		-0.44187
N 1.0  		0.6462503819228784 		0.6354892531161056  0.9278473863444846 		Uiso   ? 		N 		-0.44187
N 1.0  		0.5888756329139907 		0.08980272843262342  0.5335251124751217 		Uiso   ? 		N 		-0.44187
N 1.0  		0.6831692793041376 		0.867847678869369  0.5825420085091273 		Uiso   ? 		N 		-0.44187
N 1.0  		0.5227958316114256 		0.10256158602414368  0.6221672158017093 		Uiso   ? 		N 		-0.44187
N 1.0  		0.6483479168556507 		0.5827362842280892  0.8811462491782273 		Uiso   ? 		N 		-0.44187
N 1.0  		0.5895214954267929 		0.6070271861811759  0.931835637727829 		Uiso   ? 		N 		-0.44187
N 1.0  		0.5303810863484044 		0.0603592109137305  0.5335251124751217 		Uiso   ? 		N 		-0.44187
N 1.0  		0.6242497523938922 		0.838404161350476  0.5830566215908491 		Uiso   ? 		N 		-0.47359
N 1.0  		0.46632757873283814 		0.07164589262930611  0.6225531756130007 		Uiso   ? 		N 		-0.47359
N 1.0  		0.5898292985674801 		0.55451957993915  0.8830760482346841 		Uiso   ? 		N 		-0.47359
N 1.0  		0.6200691286901274 		0.5793012071842184  0.9317069844573984 		Uiso   ? 		N 		-0.47359
N 1.0  		0.5620657067870989 		0.03533222102267151  0.5296655143622079 		Uiso   ? 		N 		-0.47359
N 1.0  		0.6520021440715108 		0.810187457061537  0.5795829832892267 		Uiso   ? 		N 		-0.47359
N 1.0  		0.4960909899977191 		0.04490136421631171  0.6235824017764444 		Uiso   ? 		N 		-0.47359
N 1.0  		0.6194941017960645 		0.526302875650211  0.8810175959077967 		Uiso   ? 		N 		-0.47359
N 1.0  		0.6165527093488619 		0.6632152321130631  0.9304204517530938 		Uiso   ? 		N 		-0.47359
N 1.0  		0.5589742677904925 		0.11924624595151635  0.5336537657455521 		Uiso   ? 		N 		-0.47359
N 1.0  		0.6519513061783822 		0.895082932574345  0.5812554758048227 		Uiso   ? 		N 		-0.47359
N 1.0  		0.4919699694848972 		0.1293061144371381  0.6239683615877357 		Uiso   ? 		N 		-0.47359
N 1.0  		0.6192636430760385 		0.6116890764550005  0.8874502594293198 		Uiso   ? 		N 		-0.47491
N 1.0  		0.6669638317430782 		0.6909412111100206  0.9210287630116701 		Uiso   ? 		N 		-0.47491
N 1.0  		0.6183099774225489 		0.14697222494847384  0.529408207821347 		Uiso   ? 		N 		-0.47491
N 1.0  		0.22668674314022988 		0.9225635489253117  0.5912904308983987 		Uiso   ? 		N 		-0.47491
N 1.0  		0.5442935034300792 		0.1570320934340956  0.629629105486676 		Uiso   ? 		N 		-0.47491
N 1.0  		0.6738259608805487 		0.6379428795760134  0.8905379379196509 		Uiso   ? 		N 		-0.47491
N 1.0  		0.645298404470336 		0.4674158406124252  0.9338940900547162 		Uiso   ? 		N 		-0.47491
N 1.0  		0.5903953818546726 		0.9198645598194132  0.5272211022240291 		Uiso   ? 		N 		-0.47491
N 1.0  		0.35967229936216094 		0.04490136421631171  0.5853723804585974 		Uiso   ? 		N 		-0.47491
N 1.0  		0.5209967505854359 		0.9306605162430073  0.6269273868076364 		Uiso   ? 		N 		-0.47491
N 1.0  		0.4123371064134411 		0.1570320934340956  0.6689970062383971 		Uiso   ? 		N 		-0.47491
N 1.0  		0.6178334125807599 		0.4095102561586025  0.9290052657783587 		Uiso   ? 		N 		-0.47491
N 1.0  		0.7238815423159433 		0.20512317204828737  0.5465190927885982 		Uiso   ? 		N 		-0.46571
N 1.0  		0.3376386221786863 		0.9880753754048485  0.5840858477542928 		Uiso   ? 		N 		-0.46571
N 1.0  		0.6585331772747447 		0.20659534792423204  0.6276993064302191 		Uiso   ? 		N 		-0.46571
N 1.0  		0.3882807549039855 		0.10084404750220827  0.6697689258609799 		Uiso   ? 		N 		-0.46571
N 1.0  		0.5883810995245051 		0.4377269604475415  0.9278473863444846 		Uiso   ? 		N 		-0.46571
N 1.0  		0.6930556801894148 		0.23186770046128177  0.5433027610278367 		Uiso   ? 		N 		-0.46571
N 1.0  		0.3039225297911628 		0.012022769653547946  0.5842145010247234 		Uiso   ? 		N 		-0.46571
N 1.0  		0.6319835114633505 		0.2384924919030327  0.6285998793232324 		Uiso   ? 		N 		-0.46571
N 1.0  		0.5886977002880404 		0.3869368927274512  0.8888654454040549 		Uiso   ? 		N 		-0.46571
N 1.0  		0.7242556524424401 		0.7167042889390519  0.9256602807471668 		Uiso   ? 		N 		-0.46571
N 1.0  		0.6695710605060834 		0.17469820394543134  0.5402150825375056 		Uiso   ? 		N 		-0.46571
N 1.0  		0.28143100291759693 		0.9547060555501031  0.5822847019682663 		Uiso   ? 		N 		-0.46571
N 1.0  		0.6023126050598783 		0.18254980861713613  0.6258981606441927 		Uiso   ? 		N 		-0.44506
N 1.0  		0.4861242092668534 		0.392580233585239  0.6693829660496885 		Uiso   ? 		N 		-0.44506
N 1.0  		0.6968143589734477 		0.7463931691039356  0.9268181601810409 		Uiso   ? 		N 		-0.44506
N 1.0  		0.6377966296539401 		0.1999705564824811  0.5375133638584659 		Uiso   ? 		N 		-0.44506
N 1.0  		0.736675249421888 		0.9782608695652175  0.5784251038553526 		Uiso   ? 		N 		-0.44506
N 1.0  		0.5740782919695843 		0.2115026008440475  0.6266700802667755 		Uiso   ? 		N 		-0.44506
N 1.0  		0.7052625273535216 		0.694867013445873  0.8853918071024324 		Uiso   ? 		N 		-0.44506
N 1.0  		0.5583811263647104 		0.46569830209048974  0.9275900798036236 		Uiso   ? 		N 		-0.44506
N 1.0  		0.5094148756204968 		0.9274708018451271  0.5351976049907177 		Uiso   ? 		N 		-0.44506
N 1.0  		0.7690399322589088 		0.03704975954460693  0.5813841290752532 		Uiso   ? 		N 		-0.44506
N 1.0  		0.6033242180283973 		0.2674452841299441  0.6287285325936628 		Uiso   ? 		N 		-0.44506
N 1.0  		0.5593351976452342 		0.4149082343703995  0.8847485407502801 		Uiso   ? 		N 		-0.44506
N 1.0  		0.6164506925856377 		0.49514181960938264  0.9311923713756767 		Uiso   ? 		N 		-0.51871
N 1.0  		0.5631096374899932 		0.9502895279222693  0.5245193835449894 		Uiso   ? 		N 		-0.51871
N 1.0  		0.32716178995673256 		0.06870154087741684  0.5844718075655843 		Uiso   ? 		N 		-0.51871
N 1.0  		0.4953451889085283 		0.9601040337619001  0.6249975877511794 		Uiso   ? 		N 		-0.51871
N 1.0  		0.6167103522811563 		0.44508783982726474  0.8850058472911411 		Uiso   ? 		N 		-0.51871
N 1.0  		0.674400273495644 		0.44189812542938467  0.9350519694885904 		Uiso   ? 		N 		-0.51871
N 1.0  		0.6141738778029351 		0.8862498773186771  0.528893594739625 		Uiso   ? 		N 		-0.51871
N 1.0  		0.38991115556282885 		0.022082638139169695  0.5768812646101871 		Uiso   ? 		N 		-0.51871
N 1.0  		0.048361179295555556 		0.9075964275198745  0.6341319699517421 		Uiso   ? 		N 		-0.51871
N 1.0  		0.4390446424751079 		0.1322504661890274  0.6603772371195562 		Uiso   ? 		N 		-0.51871
N 1.0  		0.05059097053909156 		0.2524781627245068  0.7131250779960452 		Uiso   ? 		N 		-0.51871
N 1.0  		0.2129356696858227 		0.14623613701050153  0.749919913339157 		Uiso   ? 		N 		-0.51871
N 1.0  		0.8138910550310984 		0.9112768672097361  0.7991941159140236 		Uiso   ? 		N 		-0.49317
N 1.0  		0.6304251799882372 		0.6276376484444008  0.8428075745899499 		Uiso   ? 		N 		-0.49317
N 1.0  		0.36244208967627906 		0.5145254686426539  0.8833333547755451 		Uiso   ? 		N 		-0.49317
N 1.0  		0.08020493587454723 		0.30915693394837573  0.7141543041594889 		Uiso   ? 		N 		-0.49317
N 1.0  		0.2367225899549324 		0.20316027088036118  0.7554520039676669 		Uiso   ? 		N 		-0.49317
N 1.0  		0.8386834850938392 		0.968937089017568  0.799580075725315 		Uiso   ? 		N 		-0.49317
N 1.0  		0.6597368447379148 		0.6845617823142606  0.8451233334576982 		Uiso   ? 		N 		-0.49317
N 1.0  		0.3865072388085827 		0.5724310530964767  0.8823041286121014 		Uiso   ? 		N 		-0.49317
N 1.0  		0.02359262596245465 		0.19678084208460106  0.707207027556244 		Uiso   ? 		N 		-0.49317
N 1.0  		0.18777520034643924 		0.08783982726469723  0.7473468479305478 		Uiso   ? 		N 		-0.49317
N 1.0  		0.9561286583802004 		0.19236431445676713  0.8111588700640564 		Uiso   ? 		N 		-0.49317
N 1.0  		0.6033546202438476 		0.5756207674943568  0.8331585793076653 		Uiso   ? 		N 		-0.49317
N 1.0  		0.3417855809240959 		0.45833742271076655  0.8780585706878962 		Uiso   ? 		N 		-0.48112
N 1.0  		0.13503058174451565 		0.2505152615565806  0.7174992891906808 		Uiso   ? 		N 		-0.48112
N 1.0  		0.300957065621376 		0.1501619393463539  0.7576391095649847 		Uiso   ? 		N 		-0.48112
N 1.0  		0.9018555098986352 		0.9159387574835608  0.8056267794355466 		Uiso   ? 		N 		-0.48112
N 1.0  		0.7170466339849731 		0.6249386593385023  0.841135082074354 		Uiso   ? 		N 		-0.48112
N 1.0  		0.4511842900653811 		0.5228677986063401  0.8862923799954457 		Uiso   ? 		N 		-0.48112
N 1.0  		0.1075235495846588 		0.2792226911375012  0.7174992891906808 		Uiso   ? 		N 		-0.48112
N 1.0  		0.2701071317722632 		0.1781332809893022  0.7548087376155146 		Uiso   ? 		N 		-0.48112
N 1.0  		0.871643046566511 		0.943910099126509  0.8020244878634938 		Uiso   ? 		N 		-0.48112
N 1.0  		0.6877257983104471 		0.6551182647953676  0.8421643082377976 		Uiso   ? 		N 		-0.48112
N 1.0  		0.420104270798243 		0.5474040632054176  0.882175475341671 		Uiso   ? 		N 		-0.48112
N 1.0  		0.07826882590299786 		0.22156246932966928  0.7154408368637935 		Uiso   ? 		N 		-0.48112
N 1.0  		0.24461149250166933 		0.11949160859750713  0.7514637525843226 		Uiso   ? 		N 		-0.49133
N 1.0  		0.8441868522997827 		0.8877220531946217  0.809615030818891 		Uiso   ? 		N 		-0.49133
N 1.0  		0.6581118329749914 		0.5984394935714987  0.8412637353447843 		Uiso   ? 		N 		-0.49133
N 1.0  		0.3950095401497239 		0.4899892040435765  0.8851345005615715 		Uiso   ? 		N 		-0.49133
N 1.0  		0.24391255228373449 		0.22009029345372463  0.7102947060465751 		Uiso   ? 		N 		-0.49133
N 1.0  		0.4101172650237887 		0.120718421827461  0.7567385366719714 		Uiso   ? 		N 		-0.49133
N 1.0  		0.007227409316085842 		0.8835508882127786  0.7988081561027321 		Uiso   ? 		N 		-0.49133
N 1.0  		0.8291511476005264 		0.6013838453233881  0.8431935344012413 		Uiso   ? 		N 		-0.49133
N 1.0  		0.31605644750854894 		0.22965943664736485  0.6732425641626023 		Uiso   ? 		N 		-0.49133
N 1.0  		0.21643838946930985 		0.24928844832662678  0.713639691077767 		Uiso   ? 		N 		-0.49133
N 1.0  		0.38298706976342234 		0.15187947786828934  0.7580250693762761 		Uiso   ? 		N 		-0.49133
N 1.0  		0.9811800828684141 		0.916920208067524  0.8029250607565069 		Uiso   ? 		N 		-0.49133
N 1.0  		0.7972211676440704 		0.6259201099224655  0.8404918157222017 		Uiso   ? 		N 		-0.50361
N 1.0  		0.28921975521111287 		0.25885759152026694  0.6693829660496885 		Uiso   ? 		N 		-0.50361
N 1.0  		0.13692502474778495 		0.33590146236137014  0.7177565957315417 		Uiso   ? 		N 		-0.50361
N 1.0  		0.29598608441923596 		0.2345666895671803  0.7607267880553158 		Uiso   ? 		N 		-0.50361
N 1.0  		0.8975344161973493 		0.001226813229953872  0.7982935430210104 		Uiso   ? 		N 		-0.50361
N 1.0  		0.7180429728537556 		0.7127784866031995  0.8417783484265062 		Uiso   ? 		N 		-0.50361
N 1.0  		0.44380138065390395 		0.604573559721268  0.8859064201841543 		Uiso   ? 		N 		-0.50361
N 1.0  		0.6020424272155309 		0.36092845225242914  0.7208442742218728 		Uiso   ? 		N 		-0.50361
N 1.0  		0.26709670556625753 		0.2600844047502209  0.7643290796273686 		Uiso   ? 		N 		-0.50361
N 1.0  		0.8659548802718399 		0.023064088723132793  0.7909603066064741 		Uiso   ? 		N 		-0.50361
N 1.0  		0.6879443916576644 		0.7392776523702032  0.8370181774205792 		Uiso   ? 		N 		-0.50361
N 1.0  		0.41170705397028673 		0.6266561978604377  0.8888654454040549 		Uiso   ? 		N 		-0.50361
N 1.0  		0.4615408606495143 		0.16831877514967125  0.7079789471788268 		Uiso   ? 		N 		-0.43611
N 1.0  		0.13620534020023822 		0.06502110118755522  0.7573818030241237 		Uiso   ? 		N 		-0.43611
N 1.0  		0.9015663405756903 		0.16611051133575427  0.8047262065425335 		Uiso   ? 		N 		-0.43611
N 1.0  		0.5474516227144957 		0.5483855137893807  0.8380474035840229 		Uiso   ? 		N 		-0.43611
N 1.0  		0.2887787541627161 		0.4394444989694769  0.8861637267250152 		Uiso   ? 		N 		-0.43611
N 1.0  		0.9960013005424605 		0.14206497202865837  0.7135110378073366 		Uiso   ? 		N 		-0.43611
N 1.0  		0.32697738085389383 		0.3704975954460693  0.7558379637789583 		Uiso   ? 		N 		-0.43611
N 1.0  		0.9295224248027905 		0.1361762685248798  0.8031823672973679 		Uiso   ? 		N 		-0.43611
N 1.0  		0.7480704264630625 		0.8501815683580332  0.8452519867281286 		Uiso   ? 		N 		-0.43611
N 1.0  		0.31292528938762115 		0.40656590440671314  0.8837193145868364 		Uiso   ? 		N 		-0.43611
N 1.0  		0.43584152882943883 		0.11139464127981158  0.7095227864239922 		Uiso   ? 		N 		-0.43611
N 1.0  		0.2717535208098107 		0.3454706055550103  0.7522356722069053 		Uiso   ? 		N 		-0.43611
N 1.0  		0.8720750549991155 		0.10967710275787615  0.8004806486183282 		Uiso   ? 		N 		-0.43805
N 1.0  		0.6889231352807513 		0.8236824025910296  0.8466671727028637 		Uiso   ? 		N 		-0.43805
N 1.0  		0.2561241877237826 		0.381784277161645  0.8859064201841543 		Uiso   ? 		N 		-0.43805
N 1.0  		0.13546776843895042 		0.4188340367062519  0.7108093191282969 		Uiso   ? 		N 		-0.43805
N 1.0  		0.29584311496669924 		0.31332809893021885  0.7558379637789583 		Uiso   ? 		N 		-0.43805
N 1.0  		0.9000880802942322 		0.07900677200902935  0.7993227691844541 		Uiso   ? 		N 		-0.43805
N 1.0  		0.7163972980951758 		0.7944842477181274  0.8430648811308108 		Uiso   ? 		N 		-0.43805
N 1.0  		0.44170433268212145 		0.6811267052703897  0.8868069930771675 		Uiso   ? 		N 		-0.43805
N 1.0  		0.5783361464350214 		0.39086269506330357  0.713639691077767 		Uiso   ? 		N 		-0.43805
N 1.0  		0.23869804574880243 		0.28658357051722444  0.7550660441563755 		Uiso   ? 		N 		-0.43805
N 1.0  		0.8416111289743418 		0.052998331534007265  0.7953345178011099 		Uiso   ? 		N 		-0.43805
N 1.0  		0.6599707121848686 		0.7657768181372069  0.8412637353447843 		Uiso   ? 		N 		-0.43805
N 1.0  		0.38401160336068474 		0.6541368142114045  0.8834620080459755 		Uiso   ? 		N 		-0.47437
N 1.0  		0.37901403429705666 		0.0814603984689371  0.7118385452917406 		Uiso   ? 		N 		-0.47437
N 1.0  		0.2136358111437149 		0.31848071449602516  0.755194697426806 		Uiso   ? 		N 		-0.47437
N 1.0  		0.816629907159855 		0.08293257434488174  0.7975216233984276 		Uiso   ? 		N 		-0.47437
N 1.0  		0.6330946740651118 		0.7991461379919522  0.8407491222630625 		Uiso   ? 		N 		-0.47437
N 1.0  		0.19862867447493904 		0.357738737854549  0.8847485407502801 		Uiso   ? 		N 		-0.47437
N 1.0  		0.4053508366341207 		0.13838453233879675  0.7117098920213102 		Uiso   ? 		N 		-0.47437
N 1.0  		0.07872510105113105 		0.03803121012857003  0.7590542955397198 		Uiso   ? 		N 		-0.47437
N 1.0  		0.8434486309095945 		0.13912062027676905  0.8034396738382288 		Uiso   ? 		N 		-0.47437
N 1.0  		0.4902736841511667 		0.5211502600844048  0.8417783484265062 		Uiso   ? 		N 		-0.47437
N 1.0  		0.2325910512932819 		0.41588968495436257  0.8856491136432935 		Uiso   ? 		N 		-0.47437
N 1.0  		0.16491397832031734 		0.30645794484247724  0.7173706359202504 		Uiso   ? 		N 		-0.47437
N 1.0  		0.3282753060294869 		0.20904897438413977  0.7596975618918721 		Uiso   ? 		N 		-0.47101
N 1.0  		0.9266479399613761 		0.9735989792913927  0.7986795028323018 		Uiso   ? 		N 		-0.47101
N 1.0  		0.7440537761844579 		0.6823535185003436  0.8428075745899499 		Uiso   ? 		N 		-0.47101
N 1.0  		0.4781585629194337 		0.5797919324761999  0.8853918071024324 		Uiso   ? 		N 		-0.47101
N 1.0  		0.24657594318572112 		0.3074393954264403  0.7129964247256148 		Uiso   ? 		N 		-0.47101
N 1.0  		0.41068862354791225 		0.20855824909215823  0.75635257686068 		Uiso   ? 		N 		-0.47101
N 1.0  		0.013814231356300555 		0.972372166061439  0.805755432705977 		Uiso   ? 		N 		-0.47101
N 1.0  		0.8218909179479301 		0.6833349690843067  0.8376614437727314 		Uiso   ? 		N 		-0.47101
N 1.0  		0.32063224996150136 		0.3170085386200805  0.6646227950437614 		Uiso   ? 		N 		-0.47101
N 1.0  		0.1917090036494733 		0.2750515261556581  0.722002153655747 		Uiso   ? 		N 		-0.47101
N 1.0  		0.3567878479829749 		0.18107763274119149  0.7640717730865078 		Uiso   ? 		N 		-0.47101
N 1.0  		0.9582186782640376 		0.9500441652762784  0.8075565784920036 		Uiso   ? 		N 		-0.47101
N 1.0  		0.7674248870337571 		0.6521739130434783  0.8338018456598176 		Uiso   ? 		N 		-0.45787
N 1.0  		0.5060753013242133 		0.5540288546471686  0.8922104304352468 		Uiso   ? 		N 		-0.45787
N 1.0  		0.27459166292879783 		0.19432721562469332  0.7029614696320389 		Uiso   ? 		N 		-0.45787
N 1.0  		0.936527150090797 		0.09323780547649427  0.7660015721429646 		Uiso   ? 		N 		-0.45787
N 1.0  		0.19939189250076922 		0.18672097359897932  0.7912176131473351 		Uiso   ? 		N 		-0.45787
N 1.0  		0.8591205725608484 		0.5793012071842184  0.8498835044636253 		Uiso   ? 		N 		-0.45787
N 1.0  		0.3444134403577238 		0.2009520070664442  0.6789033080615426 		Uiso   ? 		N 		-0.45787
N 1.0  		0.33118637759519465 		0.3032682304445971  0.7090081733422705 		Uiso   ? 		N 		-0.45787
N 1.0  		0.9962370021743839 		0.2058592599862597  0.7586683357284284 		Uiso   ? 		N 		-0.45787
N 1.0  		0.09504889473108585 		0.9669741878496418  0.8065273523285599 		Uiso   ? 		N 		-0.45787
N 1.0  		0.9123001703702363 		0.6911865737560114  0.8424216147786585 		Uiso   ? 		N 		-0.45787
N 1.0  		0.4032645341291447 		0.31185592305427423  0.672856604351311 		Uiso   ? 		N 		-0.45787
N 1.0  		0.2736163280326388 		0.27652370203160276  0.7124818116438929 		Uiso   ? 		N 		-0.37523
N 1.0  		0.9374401550230196 		0.17666110511335756  0.7605981347848852 		Uiso   ? 		N 		-0.37523
N 1.0  		0.0381251133083666 		0.9419471979585828  0.8017671813226328 		Uiso   ? 		N 		-0.37523
N 1.0  		0.8542458782490456 		0.6587987044852293  0.8410064288039234 		Uiso   ? 		N 		-0.37523
N 1.0  		0.34606252384323144 		0.2858474825792522  0.6684823931566752 		Uiso   ? 		N 		-0.37523
N 1.0  		0.3020631312952624 		0.24757090980469132  0.7102947060465751 		Uiso   ? 		N 		-0.37523
N 1.0  		0.9667697883203934 		0.14819903817842772  0.7596975618918721 		Uiso   ? 		N 		-0.37523
N 1.0  		0.06626961598521203 		0.9132397683776623  0.797907583209719 		Uiso   ? 		N 		-0.37523
N 1.0  		0.8874507992394791 		0.6342624398861518  0.8442227605646849 		Uiso   ? 		N 		-0.37523
N 1.0  		0.37405147741576383 		0.25640396506035923  0.6738858305147547 		Uiso   ? 		N 		-0.37523
N 1.0  		0.30405618233482834 		0.33442928648542547  0.7124818116438929 		Uiso   ? 		N 		-0.37523
N 1.0  		0.96631804180519 		0.23186770046128177  0.7533935516407795 		Uiso   ? 		N 		-0.37523
N 1.0  		0.06996258840341402 		1.0000981450583963  0.8038256336495202 		Uiso   ? 		N 		-0.36432
N 1.0  		0.8805169418952452 		0.7147413877711257  0.8348310718232613 		Uiso   ? 		N 		-0.36432
N 1.0  		0.37753195966163644 		0.3432623417410934  0.6684823931566752 		Uiso   ? 		N 		-0.36432
N 1.0  		0.36072580661693804 		0.3572480125625675  0.7037333892546215 		Uiso   ? 		N 		-0.36432
N 1.0  		0.022822817800746936 		0.25983904210423003  0.748504727364422 		Uiso   ? 		N 		-0.36432
N 1.0  		0.621893482678659 		0.022818726077142016  0.7966210505054144 		Uiso   ? 		N 		-0.36432
N 1.0  		0.935881076943905 		0.7434488173520464  0.8320006998737911 		Uiso   ? 		N 		-0.36432
N 1.0  		0.4328368324963203 		0.3663264304642262  0.677359468816377 		Uiso   ? 		N 		-0.36432
N 1.0  		0.32748082552521623 		0.13691235646285213  0.7156981434046544 		Uiso   ? 		N 		-0.36432
N 1.0  		0.9957757437573649 		0.038767298066542354  0.7620133207596204 		Uiso   ? 		N 		-0.36432
N 1.0  		0.7605927378008143 		0.1361762685248798  0.8042115934608116 		Uiso   ? 		N 		-0.36432
N 1.0  		0.9155169835736838 		0.5250760624202572  0.8390766297474666 		Uiso   ? 		N 		-0.36432
N 1.0  		0.6454923254749902 		0.41638041024634415  0.8892514052153463 		Uiso   ? 		N 		-0.40098
N 1.0  		0.2960354614293956 		0.07827068407105703  0.7194290882471377 		Uiso   ? 		N 		-0.40098
N 1.0  		0.1340987480016064 		0.31749926391206207  0.75635257686068 		Uiso   ? 		N 		-0.40098
N 1.0  		0.7315505042914829 		0.0785160467170478  0.8051121663538248 		Uiso   ? 		N 		-0.40098
N 1.0  		0.05086280425935236 		0.7974285994700168  0.8401058559109102 		Uiso   ? 		N 		-0.40098
N 1.0  		0.6164500919656589 		0.35872018843851217  0.8906665911900814 		Uiso   ? 		N 		-0.40098
N 1.0  		0.2694441286497212 		0.10795956423594073  0.7108093191282969 		Uiso   ? 		N 		-0.40098
N 1.0  		0.10297058528929966 		0.3444891549710472  0.7584110291875674 		Uiso   ? 		N 		-0.40098
N 1.0  		0.7037411715458479 		0.10746883894395919  0.8040829401903811 		Uiso   ? 		N 		-0.40098
N 1.0  		0.02338864144492775 		0.826626754342919  0.8419070016969366 		Uiso   ? 		N 		-0.40098
N 1.0  		0.3550100952226876 		0.12439886151732261  0.6737571772443242 		Uiso   ? 		N 		-0.40098
N 1.0  		0.41602652412069285 		0.39135342035528514  0.7132537312664756 		Uiso   ? 		N 		-0.40098
N 1.0  		0.07705876329689469 		0.28756502110118753  0.7550660441563755 		Uiso   ? 		N 		-0.37591
N 1.0  		0.6751239183811755 		0.049808617136127206  0.8036969803790898 		Uiso   ? 		N 		-0.37591
N 1.0  		0.9939987866100007 		0.7704387084110316  0.8371468306910096 		Uiso   ? 		N 		-0.37591
N 1.0  		0.7313960104431045 		0.6646874079890078  0.8874502594293198 		Uiso   ? 		N 		-0.37591
N 1.0  		0.38415348523225307 		0.41515359701639026  0.7073356808266745 		Uiso   ? 		N 		-0.37591
N 1.0  		0.0461430907569175 		0.3145549121601728  0.7580250693762761 		Uiso   ? 		N 		-0.37591
N 1.0  		0.14451237331274508 		0.07483560702718618  0.8052408196242553 		Uiso   ? 		N 		-0.37591
N 1.0  		0.9641214932090869 		0.7986554126999706  0.8416496951560757 		Uiso   ? 		N 		-0.37591
N 1.0  		0.4594189943511461 		0.4237412896260674  0.6695116193201189 		Uiso   ? 		N 		-0.37591
N 1.0  		0.24237087445737132 		0.13838453233879675  0.7074643340971049 		Uiso   ? 		N 		-0.37591
N 1.0  		0.9102648840674453 		0.03901266071253313  0.7586683357284284 		Uiso   ? 		N 		-0.37591
N 1.0  		0.1712172149264517 		0.13249582883501818  0.8018958345930632 		Uiso   ? 		N 		-0.37591
N 1.0  		0.9937025891991105 		0.854843458631858  0.8449946801872676 		Uiso   ? 		N 		-0.38794
N 1.0  		0.32164962512794115 		0.14819903817842772  0.6727279510808805 		Uiso   ? 		N 		-0.38794
N 1.0  		0.29991685229734294 		0.16635587398174503  0.7104233593170055 		Uiso   ? 		N 		-0.38794
N 1.0  		0.9693399600820036 		0.06919226616939837  0.7613700544074681 		Uiso   ? 		N 		-0.38794
N 1.0  		0.7331755160544062 		0.16463833545980963  0.8027964074860765 		Uiso   ? 		N 		-0.38794
N 1.0  		0.8856637618953542 		0.5520659534792424  0.8412637353447843 		Uiso   ? 		N 		-0.38794
N 1.0  		0.37843777383800264 		0.18230444597114537  0.6702835389427017 		Uiso   ? 		N 		-0.38794
N 1.0  		0.3517259687864179 		0.10550593777603298  0.7227740732783299 		Uiso   ? 		N 		-0.38794
N 1.0  		0.022968855003244398 		0.009814505839630975  0.7553233506972364 		Uiso   ? 		N 		-0.38794
N 1.0  		0.7883034625101528 		0.10575130042202376  0.8089717644667387 		Uiso   ? 		N 		-0.38794
N 1.0  		0.4361844901364841 		0.4924428305034842  0.8493688913819034 		Uiso   ? 		N 		-0.38794
N 1.0  		0.6699258871859373 		0.3862008047894789  0.8832047015051147 		Uiso   ? 		N 		-0.38794
H 1.0  		0.6848558744269961 		0.9659927372656787  0.9206428032003787 		Uiso   ? 		H 		0.31307
H 1.0  		0.12654550234706952 		0.42521346550201206  0.5273497554944596 		Uiso   ? 		H 		0.31307
H 1.0  		0.7132977267457676 		0.15973108253999413  0.6023546121554183 		Uiso   ? 		H 		0.31307
H 1.0  		0.534181691743729 		0.37565021101187557  0.632974090517868 		Uiso   ? 		H 		0.31307
H 1.0  		0.4238777690460562 		0.6084993620571205  0.6534299605163113 		Uiso   ? 		H 		0.31307
H 1.0  		0.8408000271463546 		0.025026989891058986  0.9485605628837889 		Uiso   ? 		H 		0.31307
H 1.0  		0.7836535783794442 		0.4661890273824713  0.5537236759327041 		Uiso   ? 		H 		0.31307
H 1.0  		0.38071320907169154 		0.2591029541662578  0.6046703710231667 		Uiso   ? 		H 		0.31307
H 1.0  		0.7199792288093279 		0.48630876435371484  0.6062142102683321 		Uiso   ? 		H 		0.31307
H 1.0  		0.8358225048172587 		0.9674649131416234  0.9112511144589551 		Uiso   ? 		H 		0.31307
H 1.0  		0.11411003064790655 		0.03017960545686525  0.9501044021289543 		Uiso   ? 		H 		0.31307
H 1.0  		0.05456741473238508 		0.4894984787515949  0.5533377161214127 		Uiso   ? 		H 		0.31307
H 1.0  		0.6199026068010298 		0.25640396506035923  0.5692907216547898 		Uiso   ? 		H 		0.30898
H 1.0  		0.4364951013841205 		0.4701148297183237  0.6166351251731995 		Uiso   ? 		H 		0.30898
H 1.0  		0.36106595981703427 		0.708116596329375  0.6906107556707146 		Uiso   ? 		H 		0.30898
H 1.0  		0.7627609623683032 		0.8617136127195997  0.9520342011854113 		Uiso   ? 		H 		0.30898
H 1.0  		0.17556903513626662 		0.30056924133869867  0.5317239666890953 		Uiso   ? 		H 		0.30898
H 1.0  		0.9663066633933711 		0.42521346550201206  0.5584838469386312 		Uiso   ? 		H 		0.30898
H 1.0  		0.6128849285592461 		0.30866620865639416  0.6440382717748877 		Uiso   ? 		H 		0.30898
H 1.0  		0.769967059059832 		0.8106781823535185  0.8645499772926978 		Uiso   ? 		H 		0.30898
H 1.0  		0.4890912156535646 		0.8651486897634705  0.9187130041439219 		Uiso   ? 		H 		0.30898
H 1.0  		0.9520474706506891 		0.29639807635685544  0.5292795545509165 		Uiso   ? 		H 		0.30898
H 1.0  		0.7337109374831368 		0.4232505643340858  0.5959219486338952 		Uiso   ? 		H 		0.30898
H 1.0  		0.37262892463733116 		0.32240651683187754  0.6089159289473718 		Uiso   ? 		H 		0.30898
H 1.0  		0.28051069357052927 		0.5142801059966632  0.6668099006410793 		Uiso   ? 		H 		0.31162
H 1.0  		0.8259278579201905 		0.7721562469329669  0.9583382114365038 		Uiso   ? 		H 		0.31162
H 1.0  		0.7773878857356944 		0.22671508489547554  0.5651738170010151 		Uiso   ? 		H 		0.31162
H 1.0  		0.5448380957836583 		0.3285405829816469  0.5645305506488628 		Uiso   ? 		H 		0.31162
H 1.0  		0.20629299415855984 		0.2183727549317892  0.6100738083812459 		Uiso   ? 		H 		0.31162
H 1.0  		0.6054224672401373 		0.46373540092256355  0.6533013072458809 		Uiso   ? 		H 		0.31162
H 1.0  		0.33939832505732176 		0.5908332515457847  0.7078502939083963 		Uiso   ? 		H 		0.31162
H 1.0  		0.5164335601092934 		0.49612327019334573  0.7729488487462096 		Uiso   ? 		H 		0.31162
H 1.0  		0.10376165706664259 		0.2500245362645991  0.7824691907580636 		Uiso   ? 		H 		0.31162
H 1.0  		0.9316402984381403 		0.9704092648935128  0.8363749110684269 		Uiso   ? 		H 		0.31162
H 1.0  		0.6785301729652691 		0.8985180096182158  0.9057190238304453 		Uiso   ? 		H 		0.31162
H 1.0  		0.5087642248317532 		0.7115516733732457  0.699101871519125 		Uiso   ? 		H 		0.31162
H 1.0  		0.18658550876794733 		0.6141427029149084  0.7383411190004155 		Uiso   ? 		H 		0.31151
H 1.0  		0.799594382976099 		0.342526253803121  0.7946912514489575 		Uiso   ? 		H 		0.31151
H 1.0  		0.09894551068984792 		0.0861222887427618  0.8631347913179627 		Uiso   ? 		H 		0.31151
H 1.0  		0.6058851865401254 		0.7022278928255963  0.6521434278120067 		Uiso   ? 		H 		0.31151
H 1.0  		0.7913738328840684 		0.7051722445774856  0.6916399818341583 		Uiso   ? 		H 		0.31151
H 1.0  		0.4671206796880952 		0.6116890764550005  0.7459316619558127 		Uiso   ? 		H 		0.31151
H 1.0  		0.037414372367690324 		0.35872018843851217  0.7795101655381631 		Uiso   ? 		H 		0.31151
H 1.0  		0.8785960246894768 		0.08489547551280793  0.8321293531442217 		Uiso   ? 		H 		0.31151
H 1.0  		0.5983506237122527 		0.9735989792913927  0.8703393744620684 		Uiso   ? 		H 		0.31151
H 1.0  		0.4295038160108806 		0.5275296888801649  0.6891955696959795 		Uiso   ? 		H 		0.31151
H 1.0  		0.6252645790963947 		0.43797232309353223  0.7733348085575009 		Uiso   ? 		H 		0.31151
H 1.0  		0.34685577078251106 		0.5118264795367553  0.7867147486822689 		Uiso   ? 		H 		0.31151
H 1.0  		0.00198785713659011 		0.903670625184022  0.8318720466033607 		Uiso   ? 		H 		0.31740
H 1.0  		0.5035642781175899 		0.5260575130042203  0.6535586137867417 		Uiso   ? 		H 		0.31740
H 1.0  		0.19839967663788208 		0.5145254686426539  0.7241892592530648 		Uiso   ? 		H 		0.31740
H 1.0  		0.3385255262104104 		0.4382176857395231  0.760212174973594 		Uiso   ? 		H 		0.31740
H 1.0  		0.12315224972567454 		0.5331730297379528  0.8209365186167715 		Uiso   ? 		H 		0.31740
H 1.0  		0.7789306188179923 		0.8953282952203357  0.8280124484904469 		Uiso   ? 		H 		0.31740
H 1.0  		0.5087568880918745 		0.7812346648346257  0.9017307724471011 		Uiso   ? 		H 		0.31740
H 1.0  		0.523035055629266 		0.4455785651192463  0.7329376816423362 		Uiso   ? 		H 		0.31740
H 1.0  		0.17721482355383544 		0.3314849347335362  0.7385984255412764 		Uiso   ? 		H 		0.31740
H 1.0  		0.9386148811537085 		0.4178525861222888  0.7891591608204477 		Uiso   ? 		H 		0.31740
H 1.0  		0.598110653090411 		0.8082245558936109  0.8267259157861423 		Uiso   ? 		H 		0.31740
H 1.0  		0.8571851768682667 		0.7407498282461479  0.8739416660341215 		Uiso   ? 		H 		0.31740
H 1.0  		0.8429214878176885 		0.2851113946412798  0.9425138591735571 		Uiso   ? 		H 		0.32022
H 1.0  		0.29484685743187206 		0.7647953675532437  0.5480629320337638 		Uiso   ? 		H 		0.32022
H 1.0  		0.8681024741687058 		0.48974384139758564  0.5712205207112468 		Uiso   ? 		H 		0.32022
H 1.0  		0.7062245359939028 		0.7108155854352733  0.6415938596367089 		Uiso   ? 		H 		0.32022
H 1.0  		0.608587663621421 		0.9868485621748946  0.6755583230303507 		Uiso   ? 		H 		0.32022
H 1.0  		0.9906452854379608 		0.35872018843851217  0.9118943808111074 		Uiso   ? 		H 		0.32022
H 1.0  		0.9603888016665634 		0.80478947884974  0.521045745243367 		Uiso   ? 		H 		0.32022
H 1.0  		0.5588173391371658 		0.5864167239179509  0.6076293962430672 		Uiso   ? 		H 		0.32022
H 1.0  		0.8854871764933839 		0.8079791932476201  0.6103311149221069 		Uiso   ? 		H 		0.32022
H 1.0  		0.022604338112518607 		0.2883011090391599  0.8801170230147836 		Uiso   ? 		H 		0.32022
H 1.0  		0.2789041373162921 		0.3665717931102169  0.9187130041439219 		Uiso   ? 		H 		0.32022
H 1.0  		0.21930458033275418 		0.826626754342919  0.5561680880708829 		Uiso   ? 		H 		0.32022
H 1.0  		0.8163054503704176 		0.6062910982432035  0.5635013244854191 		Uiso   ? 		H 		0.31538
H 1.0  		0.6557769895433041 		0.8300618313867898  0.6206233765565438 		Uiso   ? 		H 		0.31538
H 1.0  		0.5290927053996606 		0.04588281480027481  0.6835348257970392 		Uiso   ? 		H 		0.31538
H 1.0  		0.9046990732385762 		0.1732260280694867  0.9441863516891532 		Uiso   ? 		H 		0.31538
H 1.0  		0.3898979106410066 		0.6595347924232016  0.5547529020961478 		Uiso   ? 		H 		0.31538
H 1.0  		0.14286824077108962 		0.7672489940131515  0.5646592039192933 		Uiso   ? 		H 		0.31538
H 1.0  		0.8323223658227428 		0.6693492982628326  0.6201087634748219 		Uiso   ? 		H 		0.31538
H 1.0  		0.9416542810172289 		0.14599077436451074  0.8972279079820349 		Uiso   ? 		H 		0.31538
H 1.0  		0.6521056863677716 		0.1962901167926195  0.9188416574143523 		Uiso   ? 		H 		0.31538
H 1.0  		0.09613788444529989 		0.6580626165472568  0.543946027379989 		Uiso   ? 		H 		0.31538
H 1.0  		0.9022048663486136 		0.7530179605456866  0.5942494561182993 		Uiso   ? 		H 		0.31538
H 1.0  		0.534323167988263 		0.6521739130434783  0.6139334064941598 		Uiso   ? 		H 		0.31538
H 1.0  		0.44547794458892365 		0.854843458631858  0.6621783829055827 		Uiso   ? 		H 		0.30375
H 1.0  		0.9927731412522279 		0.07483560702718618  0.9412273264692526 		Uiso   ? 		H 		0.30375
H 1.0  		0.9459017309928264 		0.5662969869467073  0.521045745243367 		Uiso   ? 		H 		0.30375
H 1.0  		0.704979169237419 		0.6573265286092845  0.5746941590128691 		Uiso   ? 		H 		0.30375
H 1.0  		0.37460962334309866 		0.5550103052311317  0.6433950054227354 		Uiso   ? 		H 		0.30375
H 1.0  		0.7810975608115682 		0.8087152811855923  0.6515001614598545 		Uiso   ? 		H 		0.30375
H 1.0  		0.5324610750444027 		0.9701639022475219  0.7006457107642905 		Uiso   ? 		H 		0.30375
H 1.0  		0.6947529884540463 		0.8536166454019041  0.7383411190004155 		Uiso   ? 		H 		0.30375
H 1.0  		0.2891131774899251 		0.6173324173127883  0.8152757747178312 		Uiso   ? 		H 		0.30375
H 1.0  		0.1134460212783516 		0.33909117675925016  0.8605617259093535 		Uiso   ? 		H 		0.30375
H 1.0  		0.8322603278268514 		0.2068407105702228  0.903145958421836 		Uiso   ? 		H 		0.30375
H 1.0  		0.6945498475156217 		0.025763077829031308  0.6915113285637278 		Uiso   ? 		H 		0.30375
H 1.0  		0.3449192551839274 		0.9397389341446659  0.7416861040316075 		Uiso   ? 		H 		0.32339
H 1.0  		0.9669471693352867 		0.6806359799784082  0.8154044279882617 		Uiso   ? 		H 		0.32339
H 1.0  		0.2617966576077949 		0.4284031798998921  0.8246674634592549 		Uiso   ? 		H 		0.32339
H 1.0  		0.7524550670093878 		0.05275296888801649  0.6638508754211787 		Uiso   ? 		H 		0.32339
H 1.0  		0.9662900743946884 		0.04269310040239474  0.722002153655747 		Uiso   ? 		H 		0.32339
H 1.0  		0.5911620086074305 		0.9154480321915792  0.7431012900063426 		Uiso   ? 		H 		0.32339
H 1.0  		0.22111362789651556 		0.6997742663656885  0.7815686178650505 		Uiso   ? 		H 		0.32339
H 1.0  		0.9946395845199618 		0.3977328491510453  0.8317433933329302 		Uiso   ? 		H 		0.32339
H 1.0  		0.7190461938264613 		0.28044950436745514  0.8931110033282601 		Uiso   ? 		H 		0.32339
H 1.0  		0.6198888749182178 		0.8700559426832859  0.6913826752932972 		Uiso   ? 		H 		0.32339
H 1.0  		0.7657227581681505 		0.7584159387574837  0.7770657533999843 		Uiso   ? 		H 		0.32339
H 1.0  		0.5087560278288841 		0.8462557660221808  0.7849136028962425 		Uiso   ? 		H 		0.32339
H 1.0  		0.19870541827562171 		0.25419570124644225  0.8600471128276316 		Uiso   ? 		H 		0.30603
H 1.0  		0.7058862983127319 		0.8818333496908431  0.6805758005771386 		Uiso   ? 		H 		0.30603
H 1.0  		0.3521730083596352 		0.862449700657572  0.6934411276201846 		Uiso   ? 		H 		0.30603
H 1.0  		0.5127983566970645 		0.7701933457650407  0.7391130386229984 		Uiso   ? 		H 		0.30603
H 1.0  		0.3060186528498878 		0.8538620080478948  0.8100009906301824 		Uiso   ? 		H 		0.30603
H 1.0  		0.9325784136649937 		0.24683482186671904  0.8222230513210761 		Uiso   ? 		H 		0.30603
H 1.0  		0.6707334666280076 		0.1349494552949259  0.9082920892390545 		Uiso   ? 		H 		0.30603
H 1.0  		0.6929224499566717 		0.7866326430464227  0.7331949881831971 		Uiso   ? 		H 		0.30603
H 1.0  		0.373390389812147 		0.708116596329375  0.741814757302038 		Uiso   ? 		H 		0.30603
H 1.0  		0.12160627058435974 		0.776572774560801  0.8163050008812749 		Uiso   ? 		H 		0.30603
H 1.0  		0.7759869698748976 		0.1724899401315144  0.8624915249658104 		Uiso   ? 		H 		0.30603
H 1.0  		0.01520446640035801 		0.07630778290313084  0.8738130127636909 		Uiso   ? 		H 		0.30603
H 1.0  		0.9912853044188867 		0.5903425262538032  0.9102218882955114 		Uiso   ? 		H 		0.30929
H 1.0  		0.4373585343132389 		0.05790558445382275  0.5171861471304531 		Uiso   ? 		H 		0.30929
H 1.0  		0.042028514395950456 		0.8209834134851312  0.5914190841688292 		Uiso   ? 		H 		0.30929
H 1.0  		0.8725120143755722 		0.05275296888801649  0.6076293962430672 		Uiso   ? 		H 		0.30929
H 1.0  		0.7565208346551404 		0.26572774560800866  0.6846927052309133 		Uiso   ? 		H 		0.30929
H 1.0  		0.15337740636856412 		0.6973206399057809  0.9143387929492862 		Uiso   ? 		H 		0.30929
H 1.0  		0.10031172302024283 		0.1572774560800864  0.5278643685761814 		Uiso   ? 		H 		0.30929
H 1.0  		0.7145618576628708 		0.9161841201295515  0.5975944411494912 		Uiso   ? 		H 		0.30929
H 1.0  		0.03635450229501376 		0.16365688487584654  0.6373483017125037 		Uiso   ? 		H 		0.30929
H 1.0  		0.15759336654774317 		0.649229561291589  0.8723978267889558 		Uiso   ? 		H 		0.30929
H 1.0  		0.44625460252952054 		0.6983020904897439  0.9419992460918353 		Uiso   ? 		H 		0.30929
H 1.0  		0.37841737048535773 		0.14868976347040927  0.5195019059982015 		Uiso   ? 		H 		0.30929
H 1.0  		0.9870469607180705 		0.936303857100795  0.5618288319698231 		Uiso   ? 		H 		0.30394
H 1.0  		0.778433114653647 		0.13445873000294437  0.6513715081894239 		Uiso   ? 		H 		0.30394
H 1.0  		0.6606216549416575 		0.3535675728727059  0.685721931394357 		Uiso   ? 		H 		0.30394
H 1.0  		0.11271615955894332 		0.5343998429679065  0.9426425124439876 		Uiso   ? 		H 		0.30394
H 1.0  		0.5146688416367385 		0.9694278143095496  0.5149990415331354 		Uiso   ? 		H 		0.30394
H 1.0  		0.3029208020264601 		0.0890666404946511  0.5635013244854191 		Uiso   ? 		H 		0.30394
H 1.0  		0.9349109849596434 		0.9748257925213466  0.6225531756130007 		Uiso   ? 		H 		0.30394
H 1.0  		0.11734830245993352 		0.48459122583177944  0.8756141585497175 		Uiso   ? 		H 		0.30394
H 1.0  		0.8311583851588604 		0.5250760624202572  0.9139528331379948 		Uiso   ? 		H 		0.30394
H 1.0  		0.29100002411030396 		0.9738443419373835  0.5218176648659497 		Uiso   ? 		H 		0.30394
H 1.0  		0.057260412236898796 		0.09667288252036511  0.6017113458032659 		Uiso   ? 		H 		0.30394
H 1.0  		0.7276279824251669 		0.9780155069192268  0.6087872756769414 		Uiso   ? 		H 		0.30394
H 1.0  		0.6203613167541113 		0.19187358916478559  0.6606345436604171 		Uiso   ? 		H 		0.30990
H 1.0  		0.15361044587756117 		0.4168711355383257  0.9434144320665704 		Uiso   ? 		H 		0.30990
H 1.0  		0.09940183484690285 		0.8685837668073413  0.5306947405256516 		Uiso   ? 		H 		0.30990
H 1.0  		0.8624189668498417 		0.9743350672293651  0.5934775364957166 		Uiso   ? 		H 		0.30990
H 1.0  		0.5535054258058946 		0.9242810874472471  0.6135474466828684 		Uiso   ? 		H 		0.30990
H 1.0  		0.9392201152702774 		0.12709785062322113  0.654459186679755 		Uiso   ? 		H 		0.30990
H 1.0  		0.6693271618712906 		0.24560800863676513  0.7243179125234953 		Uiso   ? 		H 		0.30990
H 1.0  		0.8461128820745716 		0.16144862106192956  0.7392416918934288 		Uiso   ? 		H 		0.30990
H 1.0  		0.44717700570456953 		0.9198645598194132  0.8093577242780301 		Uiso   ? 		H 		0.30990
H 1.0  		0.28735777592624145 		0.689469035234076  0.8262113027044203 		Uiso   ? 		H 		0.30990
H 1.0  		0.9918139083937619 		0.5157522818726077  0.8780585706878962 		Uiso   ? 		H 		0.30990
H 1.0  		0.8559417902807753 		0.3557758366866228  0.7292067367998528 		Uiso   ? 		H 		0.30990
H 1.0  		0.5373642883777642 		0.25026989891058987  0.7419434105724685 		Uiso   ? 		H 		0.30596
H 1.0  		0.1312971759230245 		0.007606242025714006  0.8200359457237583 		Uiso   ? 		H 		0.30596
H 1.0  		0.4331274950272679 		0.7608695652173914  0.830842820439917 		Uiso   ? 		H 		0.30596
H 1.0  		0.9553237733860902 		0.3611738148984199  0.6807044538475691 		Uiso   ? 		H 		0.30596
H 1.0  		0.1364482325880179 		0.3731965845519678  0.7024468565503169 		Uiso   ? 		H 		0.30596
H 1.0  		0.7831807142326281 		0.2671999214839533  0.7757792206956797 		Uiso   ? 		H 		0.30596
H 1.0  		0.3888797398616437 		0.03999411129649623  0.7815686178650505 		Uiso   ? 		H 		0.30596
H 1.0  		0.1615863184057641 		0.7294631465305722  0.8367608708797182 		Uiso   ? 		H 		0.30596
H 1.0  		0.8979720575277401 		0.6200314064186869  0.896713294900313 		Uiso   ? 		H 		0.30596
H 1.0  		0.8016311948119262 		0.2127294140740014  0.7009030173051515 		Uiso   ? 		H 		0.30596
H 1.0  		0.9177094904978468 		0.08195112376091865  0.7752646076139579 		Uiso   ? 		H 		0.30596
H 1.0  		0.7323811492091244 		0.20512317204828737  0.8105156037119041 		Uiso   ? 		H 		0.30596
H 1.0  		0.35408837400157267 		0.578565119246246  0.8614622988023667 		Uiso   ? 		H 		0.30581
H 1.0  		0.8793938002616863 		0.21101187555206596  0.6614064632829999 		Uiso   ? 		H 		0.30581
H 1.0  		0.5050254624393755 		0.2068407105702228  0.6952422734062111 		Uiso   ? 		H 		0.30581
H 1.0  		0.6819750424088278 		0.10133477279418981  0.7380838124595547 		Uiso   ? 		H 		0.30581
H 1.0  		0.46322782907437354 		0.17764255569732065  0.8147611616361095 		Uiso   ? 		H 		0.30581
H 1.0  		0.09835113569907478 		0.5864167239179509  0.8233809307549503 		Uiso   ? 		H 		0.30581
H 1.0  		0.8230258436203424 		0.4782117970360193  0.8762574249018698 		Uiso   ? 		H 		0.30581
H 1.0  		0.8429569379520917 		0.09053881637059574  0.7271482844729654 		Uiso   ? 		H 		0.30581
H 1.0  		0.5233503414938547 		0.009323780547649426  0.7402709180568724 		Uiso   ? 		H 		0.30581
H 1.0  		0.29196625273168164 		0.12538031210128572  0.7791242057268717 		Uiso   ? 		H 		0.30581
H 1.0  		0.9529370044803058 		0.5174698203945431  0.8250534232705463 		Uiso   ? 		H 		0.30581
H 1.0  		0.1687884057503865 		0.37540484836588484  0.8677663090534593 		Uiso   ? 		H 		0.30581
H 1.0  		0.1772779491306951 		0.9542153302581216  0.9158826321944517 		Uiso   ? 		H 		0.31533
H 1.0  		0.6204601521083859 		0.41858867406026107  0.5568113544230352 		Uiso   ? 		H 		0.31533
H 1.0  		0.2054920371774006 		0.15089802728432625  0.598366360772074 		Uiso   ? 		H 		0.31533
H 1.0  		0.0640317247139077 		0.423005201688095  0.6066001700796235 		Uiso   ? 		H 		0.31533
H 1.0  		0.9422996565690415 		0.639415055451958  0.6524007343528676 		Uiso   ? 		H 		0.31533
H 1.0  		0.3207226933199624 		0.026499165767003632  0.9130522602449817 		Uiso   ? 		H 		0.31533
H 1.0  		0.27219669702014426 		0.48532731376975174  0.5182153732938968 		Uiso   ? 		H 		0.31533
H 1.0  		0.9019710312266935 		0.2451172833447836  0.5947640692000211 		Uiso   ? 		H 		0.31533
H 1.0  		0.20444984368437524 		0.49857689665325355  0.6415938596367089 		Uiso   ? 		H 		0.31533
H 1.0  		0.33902048191081824 		0.9674649131416234  0.9093213154024982 		Uiso   ? 		H 		0.31533
H 1.0  		0.6122286615566044 		0.03238786927078222  0.9481746030724975 		Uiso   ? 		H 		0.31533
H 1.0  		0.5457636803676571 		0.4914613799195211  0.5597703796429357 		Uiso   ? 		H 		0.31533
H 1.0  		0.1085831923393574 		0.249043085680636  0.5889746720306503 		Uiso   ? 		H 		0.31069
H 1.0  		0.9345128031105625 		0.4644714888605359  0.6171497382549213 		Uiso   ? 		H 		0.31069
H 1.0  		0.8648672054565723 		0.7174403768770243  0.6572895586292251 		Uiso   ? 		H 		0.31069
H 1.0  		0.2543988150735484 		0.8509176562960056  0.9492038292359412 		Uiso   ? 		H 		0.31069
H 1.0  		0.6641080130444397 		0.29934242810874473  0.5326245395821084 		Uiso   ? 		H 		0.31069
H 1.0  		0.48278875797646525 		0.4347826086956522  0.5662030431644588 		Uiso   ? 		H 		0.31069
H 1.0  		0.11783561276852919 		0.3189714397880067  0.639664060580252 		Uiso   ? 		H 		0.31069
H 1.0  		0.27848840923043694 		0.8187751496712141  0.8730410931411081 		Uiso   ? 		H 		0.31069
H 1.0  		0.9873653956665753 		0.8680930415153597  0.923473175149849 		Uiso   ? 		H 		0.31069
H 1.0  		0.42875272300087075 		0.3275591323976838  0.5269637956831682 		Uiso   ? 		H 		0.31069
H 1.0  		0.2291824109131615 		0.41417214643242717  0.5941208028478688 		Uiso   ? 		H 		0.31069
H 1.0  		0.8722678560977678 		0.32510550593777604  0.6377342615237951 		Uiso   ? 		H 		0.31069
H 1.0  		0.7772099531097441 		0.5238492491903033  0.6830202127153173 		Uiso   ? 		H 		0.31048
H 1.0  		0.34296873137563205 		0.7900677200902936  0.9483032563429279 		Uiso   ? 		H 		0.31048
H 1.0  		0.2941857208193335 		0.2505152615565806  0.5605422992655185 		Uiso   ? 		H 		0.31048
H 1.0  		0.0408900986626551 		0.32019825301796057  0.5651738170010151 		Uiso   ? 		H 		0.31048
H 1.0  		0.7088257752410091 		0.22303464520561392  0.6116176476264115 		Uiso   ? 		H 		0.31048
H 1.0  		0.10216888170413918 		0.4546569830209049  0.642494432529722 		Uiso   ? 		H 		0.31048
H 1.0  		0.876158271906541 		0.6401511433899304  0.7245752190643562 		Uiso   ? 		H 		0.31048
H 1.0  		0.03189767890596909 		0.5380802826577682  0.74515974233323 		Uiso   ? 		H 		0.31048
H 1.0  		0.6314391464277492 		0.29222691137501233  0.7852995627075339 		Uiso   ? 		H 		0.31048
H 1.0  		0.4262905251933499 		0.9728628913534204  0.8563161679851482 		Uiso   ? 		H 		0.31048
H 1.0  		0.1874242047044355 		0.9201099224654039  0.8716259071663732 		Uiso   ? 		H 		0.31048
H 1.0  		0.02693463506368665 		0.6892236725880853  0.6920259416454495 		Uiso   ? 		H 		0.31048
H 1.0  		0.6769206949450939 		0.6080086367651389  0.7662588786838257 		Uiso   ? 		H 		0.31836
H 1.0  		0.28001705276906774 		0.3704975954460693  0.8166909606925663 		Uiso   ? 		H 		0.31836
H 1.0  		0.595059598488172 		0.08219648640690942  0.829170327924321 		Uiso   ? 		H 		0.31836
H 1.0  		0.10544859316646815 		0.6860339581902052  0.679289267872834 		Uiso   ? 		H 		0.31836
H 1.0  		0.2793776020830868 		0.7019825301796055  0.6913826752932972 		Uiso   ? 		H 		0.31836
H 1.0  		0.9128148474693552 		0.5783197566002553  0.7495339535278657 		Uiso   ? 		H 		0.31836
H 1.0  		0.5168556186880144 		0.3533222102267151  0.7903170402543218 		Uiso   ? 		H 		0.31836
H 1.0  		0.3211921487398505 		0.05888703503778585  0.8542577156582608 		Uiso   ? 		H 		0.31836
H 1.0  		0.10631551615646978 		0.9797330454411621  0.9044324911261408 		Uiso   ? 		H 		0.31836
H 1.0  		0.9721778102329455 		0.5461772499754638  0.7229027265487602 		Uiso   ? 		H 		0.31836
H 1.0  		0.12071430194979445 		0.4365001472175876  0.7760365272365406 		Uiso   ? 		H 		0.31836
H 1.0  		0.8511870812798934 		0.5179605456865248  0.7813113113241896 		Uiso   ? 		H 		0.31836
H 1.0  		0.49975140172242233 		0.8958190205123172  0.8320006998737911 		Uiso   ? 		H 		0.29618
H 1.0  		0.04197269323393596 		0.5552556678771224  0.677874081898099 		Uiso   ? 		H 		0.29618
H 1.0  		0.698214073594287 		0.5277750515261557  0.6916399818341583 		Uiso   ? 		H 		0.29618
H 1.0  		0.8582125832225455 		0.419815487290215  0.7371832395665414 		Uiso   ? 		H 		0.29618
H 1.0  		0.6186793315981379 		0.5331730297379528  0.8215797849689238 		Uiso   ? 		H 		0.29618
H 1.0  		0.2811911459547443 		0.9019530866620866  0.8204219055350497 		Uiso   ? 		H 		0.29618
H 1.0  		0.02585006032341336 		0.7856511924624595  0.8758714650905783 		Uiso   ? 		H 		0.29618
H 1.0  		0.007112585583107095 		0.4107370693885563  0.7265050181208131 		Uiso   ? 		H 		0.29618
H 1.0  		0.6746431982084574 		0.32338796741584064  0.7389843853525678 		Uiso   ? 		H 		0.29618
H 1.0  		0.46017498929608636 		0.43502797134164295  0.8183634532081623 		Uiso   ? 		H 		0.29618
H 1.0  		0.11852130806464173 		0.8558249092158211  0.831100126980778 		Uiso   ? 		H 		0.29618
H 1.0  		0.3315890880772055 		0.7137599371871627  0.8630061380475322 		Uiso   ? 		H 		0.29618
H 1.0  		0.350514185654334 		0.30155069192266176  0.9452155778525969 		Uiso   ? 		H 		0.30589
H 1.0  		0.7886212321886118 		0.7544901364216313  0.5314666601482343 		Uiso   ? 		H 		0.30589
H 1.0  		0.38678864908072624 		0.5147708312886446  0.5649165104601541 		Uiso   ? 		H 		0.30589
H 1.0  		0.20621805221781325 		0.7311806850525077  0.6459680708313446 		Uiso   ? 		H 		0.30589
H 1.0  		0.12095326632462305 		0.980959858671116  0.6830202127153173 		Uiso   ? 		H 		0.30589
H 1.0  		0.4896439236760576 		0.36264599077436455  0.9202568433890873 		Uiso   ? 		H 		0.30589
H 1.0  		0.43201604045746134 		0.8283442928648543  0.5475483189520419 		Uiso   ? 		H 		0.30589
H 1.0  		0.06066583888303578 		0.5837177348120522  0.5956646420930343 		Uiso   ? 		H 		0.30589
H 1.0  		0.3626391597648495 		0.8315340072627343  0.6121322607081333 		Uiso   ? 		H 		0.30589
H 1.0  		0.5152310938860808 		0.2910000981450584  0.9062336369121671 		Uiso   ? 		H 		0.30589
H 1.0  		0.7297068668563086 		0.33492001177740705  0.9479172965316366 		Uiso   ? 		H 		0.30589
H 1.0  		0.7001059358085853 		0.8082245558936109  0.5243907302745588 		Uiso   ? 		H 		0.30589
H 1.0  		0.31363471542935095 		0.6043281970752773  0.56375863102628 		Uiso   ? 		H 		0.32260
H 1.0  		0.094464956555186 		0.7996368632839337  0.6409505932845566 		Uiso   ? 		H 		0.32260
H 1.0  		0.04543452497817804 		0.051771518304053396  0.6578041717109471 		Uiso   ? 		H 		0.32260
H 1.0  		0.39858914971791637 		0.17543429188340368  0.9547359198644509 		Uiso   ? 		H 		0.32260
H 1.0  		0.8911710247892151 		0.6612523309451369  0.5494781180084989 		Uiso   ? 		H 		0.32260
H 1.0  		0.643911269501273 		0.7655314554912162  0.5681328422209158 		Uiso   ? 		H 		0.32260
H 1.0  		0.27347272563508973 		0.6455491216017274  0.6409505932845566 		Uiso   ? 		H 		0.32260
H 1.0  		0.44344816084104177 		0.1504073019923447  0.8740703193045518 		Uiso   ? 		H 		0.32260
H 1.0  		0.1556517863463183 		0.18721169889096087  0.9139528331379948 		Uiso   ? 		H 		0.32260
H 1.0  		0.5999632018074221 		0.6661595838649524  0.5331391526638303 		Uiso   ? 		H 		0.32260
H 1.0  		0.3630978697179311 		0.7670036313671607  0.5676182291391938 		Uiso   ? 		H 		0.32260
H 1.0  		0.04761742302542454 		0.6379428795760134  0.6040271046710143 		Uiso   ? 		H 		0.32260
H 1.0  		0.9499953523900916 		0.8558249092158211  0.6599912773082648 		Uiso   ? 		H 		0.31862
H 1.0  		0.5153591625408819 		0.12636176268524882  0.9504903619402457 		Uiso   ? 		H 		0.31862
H 1.0  		0.4505677098620271 		0.5802826577681814  0.5269637956831682 		Uiso   ? 		H 		0.31862
H 1.0  		0.20990162639318877 		0.6798998920404358  0.5658170833531674 		Uiso   ? 		H 		0.31862
H 1.0  		0.8850596476847874 		0.5763568554323291  0.6449388446679009 		Uiso   ? 		H 		0.31862
H 1.0  		0.27462375334519507 		0.7991461379919522  0.654716493220616 		Uiso   ? 		H 		0.31862
H 1.0  		0.027875607406410763 		0.9618215722838356  0.7331949881831971 		Uiso   ? 		H 		0.31862
H 1.0  		0.2070797322959173 		0.8756992835410737  0.7631712001934946 		Uiso   ? 		H 		0.31862
H 1.0  		0.7837439894128715 		0.6023652959073511  0.8136032822022352 		Uiso   ? 		H 		0.31862
H 1.0  		0.6071523361982676 		0.32142506624791445  0.8296849410060428 		Uiso   ? 		H 		0.31862
H 1.0  		0.3253944093612513 		0.19776229266856415  0.9066195967234585 		Uiso   ? 		H 		0.31862
H 1.0  		0.17831908736778584 		0.01962901167926195  0.7330663349127667 		Uiso   ? 		H 		0.31862
H 1.0  		0.8404704087789752 		0.938512120914712  0.7658729188725343 		Uiso   ? 		H 		0.31542
H 1.0  		0.4460268382574546 		0.7012464422416332  0.8156617345291226 		Uiso   ? 		H 		0.31542
H 1.0  		0.7921693196353521 		0.3982235744430268  0.8529711829539562 		Uiso   ? 		H 		0.31542
H 1.0  		0.2894866379875215 		0.026499165767003632  0.6605058903899867 		Uiso   ? 		H 		0.31542
H 1.0  		0.41564421699132686 		0.014476396113455688  0.6979439920852508 		Uiso   ? 		H 		0.31542
H 1.0  		0.12822742285297567 		0.9372853076847582  0.766387531954256 		Uiso   ? 		H 		0.31542
H 1.0  		0.6806201438401845 		0.6902051231720484  0.7865860954118384 		Uiso   ? 		H 		0.31542
H 1.0  		0.5393787166919543 		0.41834331141427034  0.8576027006894529 		Uiso   ? 		H 		0.31542
H 1.0  		0.26965403803307975 		0.3030228677986064  0.8700820679212076 		Uiso   ? 		H 		0.31542
H 1.0  		0.11814495812614095 		0.8771714594170185  0.6871371173690921 		Uiso   ? 		H 		0.31542
H 1.0  		0.29540563630421923 		0.7731376975169301  0.7464462750375346 		Uiso   ? 		H 		0.31542
H 1.0  		0.05133738893214912 		0.8663755029934244  0.7798961253494545 		Uiso   ? 		H 		0.31542
H 1.0  		0.6596794490339422 		0.23481205221317109  0.8591465399346184 		Uiso   ? 		H 		0.31654
H 1.0  		0.2082190406172366 		0.8847777014427324  0.6505995885668412 		Uiso   ? 		H 		0.31654
H 1.0  		0.8569158592869097 		0.8541073706938856  0.6918972883750192 		Uiso   ? 		H 		0.31654
H 1.0  		0.010861379163323692 		0.7633231916772991  0.736539973214389 		Uiso   ? 		H 		0.31654
H 1.0  		0.7907457606099064 		0.8433114142702915  0.8181061466673014 		Uiso   ? 		H 		0.31654
H 1.0  		0.43272931317818686 		0.2505152615565806  0.8583746203120356 		Uiso   ? 		H 		0.31654
H 1.0  		0.17981078756401067 		0.12120914711944254  0.9054617172895844 		Uiso   ? 		H 		0.31654
H 1.0  		0.19904299068674688 		0.8001275885759153  0.7333236414536276 		Uiso   ? 		H 		0.31654
H 1.0  		0.8740542604968804 		0.6975660025517716  0.7411714909498858 		Uiso   ? 		H 		0.31654
H 1.0  		0.6096563636419792 		0.756943762881539  0.7809253515128982 		Uiso   ? 		H 		0.31654
H 1.0  		0.26691697108037116 		0.14795367553243696  0.8588892333937576 		Uiso   ? 		H 		0.31654
H 1.0  		0.5042184022833285 		0.055206595347924235  0.8673803492421679 		Uiso   ? 		H 		0.31654
H 1.0  		0.5171132982145408 		0.6347531651781334  0.9283619994262065 		Uiso   ? 		H 		0.31448
H 1.0  		0.9608496377726601 		0.09470998135243891  0.5497354245493598 		Uiso   ? 		H 		0.31448
H 1.0  		0.5507087233372095 		0.8523898321719503  0.6035124915892924 		Uiso   ? 		H 		0.31448
H 1.0  		0.3876474397179259 		0.08980272843262342  0.6116176476264115 		Uiso   ? 		H 		0.31448
H 1.0  		0.2669462857148529 		0.2959073510648739  0.646354030642636 		Uiso   ? 		H 		0.31448
H 1.0  		0.6500655471389717 		0.6987928157817254  0.9202568433890873 		Uiso   ? 		H 		0.31448
H 1.0  		0.6314556540924767 		0.13544018058690746  0.5256772629788636 		Uiso   ? 		H 		0.31448
H 1.0  		0.24052035491827428 		0.9149573068995978  0.598366360772074 		Uiso   ? 		H 		0.31448
H 1.0  		0.530812656828941 		0.16831877514967125  0.6319448643544243 		Uiso   ? 		H 		0.31448
H 1.0  		0.6679507723690341 		0.640641868681912  0.9035319182331274 		Uiso   ? 		H 		0.31448
H 1.0  		0.8869763282256713 		0.6779369908725096  0.920128190118657 		Uiso   ? 		H 		0.31448
H 1.0  		0.8768822900940731 		0.15924035724801258  0.5611855656176709 		Uiso   ? 		H 		0.31448
H 1.0  		0.44178605975168994 		0.9282068897830995  0.5689047618434984 		Uiso   ? 		H 		0.31191
H 1.0  		0.2679025644823471 		0.1388752576307783  0.621523949449557 		Uiso   ? 		H 		0.31191
H 1.0  		0.1619118627761699 		0.3663264304642262  0.6539445735980332 		Uiso   ? 		H 		0.31191
H 1.0  		0.6053229989408504 		0.5272843262341742  0.9465021105569015 		Uiso   ? 		H 		0.31191
H 1.0  		0.0510398442972787 		0.9920011777407008  0.5481915853041942 		Uiso   ? 		H 		0.31191
H 1.0  		0.7775141202055258 		0.0794974973010109  0.5749514655537301 		Uiso   ? 		H 		0.31191
H 1.0  		0.49049591354328986 		0.9971537933065071  0.6113603410855506 		Uiso   ? 		H 		0.31191
H 1.0  		0.601731442665894 		0.4720777308862499  0.8648072838335588 		Uiso   ? 		H 		0.31191
H 1.0  		0.34224440453616645 		0.5064285013249583  0.9121516873519683 		Uiso   ? 		H 		0.31191
H 1.0  		0.7822819448280954 		0.9866031995289037  0.5121686695836651 		Uiso   ? 		H 		0.31191
H 1.0  		0.5706889673611404 		0.08317793699087252  0.5710918674408163 		Uiso   ? 		H 		0.31191
H 1.0  		0.21733814947970997 		0.9701639022475219  0.6045417177527361 		Uiso   ? 		H 		0.31191
H 1.0  		0.10392918520275328 		0.19383649033271177  0.6902247958594232 		Uiso   ? 		H 		0.31961
H 1.0  		0.6874853407276158 		0.4659436647364806  0.9367244620041864 		Uiso   ? 		H 		0.31961
H 1.0  		0.6017174834651039 		0.8604867994896458  0.5256772629788636 		Uiso   ? 		H 		0.31961
H 1.0  		0.3841628021411243 		0.01398567082147414  0.5649165104601541 		Uiso   ? 		H 		0.31961
H 1.0  		0.038040805449826964 		0.8899303170085386  0.64468153812704 		Uiso   ? 		H 		0.31961
H 1.0  		0.42962469390982544 		0.11851015801354402  0.6490557493216756 		Uiso   ? 		H 		0.31961
H 1.0  		0.18299641962297292 		0.25125134949455297  0.7261190583095218 		Uiso   ? 		H 		0.31961
H 1.0  		0.35905950118773533 		0.1800961821572284  0.7771944066704148 		Uiso   ? 		H 		0.31961
H 1.0  		0.9479529243403662 		0.9252625380312102  0.8120594429570698 		Uiso   ? 		H 		0.31961
H 1.0  		0.779340097744937 		0.6730297379526942  0.8265972625157118 		Uiso   ? 		H 		0.31961
H 1.0  		0.5159554207255463 		0.5746393169103936  0.8999296266610746 		Uiso   ? 		H 		0.31961
H 1.0  		0.3532252330404995 		0.36264599077436455  0.6918972883750192 		Uiso   ? 		H 		0.31961
H 1.0  		0.019578524147787518 		0.2605751300422024  0.735382093780515 		Uiso   ? 		H 		0.31309
H 1.0  		0.6129383472413459 		0.028707429580920606  0.7850422561666729 		Uiso   ? 		H 		0.31309
H 1.0  		0.9370814816641698 		0.7407498282461479  0.8186207597490233 		Uiso   ? 		H 		0.31309
H 1.0  		0.4468083981329819 		0.35602119933261367  0.6817336800110128 		Uiso   ? 		H 		0.31309
H 1.0  		0.5771523630384728 		0.3493964078908627  0.7225167667374688 		Uiso   ? 		H 		0.31309
H 1.0  		0.289134587089583 		0.271861811757778  0.7719196225827659 		Uiso   ? 		H 		0.31309
H 1.0  		0.8428698219866031 		0.00834232996368633  0.7855568692483947 		Uiso   ? 		H 		0.31309
H 1.0  		0.67167013765578 		0.7326528609284524  0.8271118755974337 		Uiso   ? 		H 		0.31309
H 1.0  		0.4365489747021763 		0.640641868681912  0.8905379379196509 		Uiso   ? 		H 		0.31309
H 1.0  		0.29094045324439466 		0.20365099617234272  0.6920259416454495 		Uiso   ? 		H 		0.31309
H 1.0  		0.4643216883984843 		0.10673275100598685  0.7443878227106472 		Uiso   ? 		H 		0.31309
H 1.0  		0.20537448667142827 		0.18721169889096087  0.7786095926451498 		Uiso   ? 		H 		0.31309
H 1.0  		0.8527370697681146 		0.577583668662283  0.8631347913179627 		Uiso   ? 		H 		0.31299
H 1.0  		0.3673012825703675 		0.2127294140740014  0.6850786650422047 		Uiso   ? 		H 		0.31299
H 1.0  		0.01982706507449898 		0.20242418294238887  0.694341700513198 		Uiso   ? 		H 		0.31299
H 1.0  		0.19796360984944938 		0.07974285994700167  0.7378265059186938 		Uiso   ? 		H 		0.31299
H 1.0  		0.9470420455611588 		0.1962901167926195  0.8218370915097847 		Uiso   ? 		H 		0.31299
H 1.0  		0.5934291655042949 		0.5876435371479046  0.8269832223270032 		Uiso   ? 		H 		0.31299
H 1.0  		0.35265080676641525 		0.44606929041122784  0.8717545604368035 		Uiso   ? 		H 		0.31299
H 1.0  		0.3470682932798743 		0.0851408381587987  0.7299786564224356 		Uiso   ? 		H 		0.31299
H 1.0  		0.029389869433329163 		0.024781627245068213  0.7452883956036604 		Uiso   ? 		H 		0.31299
H 1.0  		0.7753498726599097 		0.08366866228285408  0.8151471214474008 		Uiso   ? 		H 		0.31299
H 1.0  		0.44433829529063723 		0.5079006772009029  0.8594038464754793 		Uiso   ? 		H 		0.31299
H 1.0  		0.6596865261308095 		0.3665717931102169  0.8750995454679955 		Uiso   ? 		H 		0.31299
