generated by VMD, t= 0.000000
_cell_length_a  47.06
_cell_length_b  47.06
_cell_length_c  61.534
_cell_angle_alpha 90.0
_cell_angle_beta  90.0
_cell_angle_gamma 120
_space_group_name_H-M_alt    'P 1'
space_group_IT_number      1  
 
loop_ 
    _atom_site_label 
    _atom_site_occupancy 
    _atom_site_fract_x 
    _atom_site_fract_y 
    _atom_site_fract_z 
    _atom_site_adp_type 
    _atom_site_U_iso_or_equiv 
    _atom_site_type_symbol 
   _atom_site_charge
C 1.0  		0.24548827379658977 		0.15480863591756625  0.7803815776643805 		Uiso   ? 		C 		0.653666
C 1.0  		0.21247160724809144 		0.6535819430814525  0.7823317190496311 		Uiso   ? 		C 		0.653666
C 1.0  		0.7489780131600733 		0.1545632973503435  0.7792439951896512 		Uiso   ? 		C 		0.653666
C 1.0  		0.709078397610717 		0.6489205103042199  0.7803815776643805 		Uiso   ? 		C 		0.653666
C 1.0  		0.19984350986171368 		0.07924435721295389  0.8294601358598498 		Uiso   ? 		C 		0.544675
C 1.0  		0.1714863075429982 		0.5809617271835132  0.8307602301166834 		Uiso   ? 		C 		0.544675
C 1.0  		0.7024262920782229 		0.07973503434739942  0.8291351122956414 		Uiso   ? 		C 		0.544675
C 1.0  		0.6631138875600728 		0.5701668302257115  0.824747294178828 		Uiso   ? 		C 		0.544675
C 1.0  		0.4236332619039774 		0.07973503434739942  0.8276725062567035 		Uiso   ? 		C 		0.545437
C 1.0  		0.3926758503019758 		0.5775269872423946  0.8299476712061624 		Uiso   ? 		C 		0.545437
C 1.0  		0.9244745271211202 		0.07801766437684005  0.8301101829882666 		Uiso   ? 		C 		0.545437
C 1.0  		0.8876899345916742 		0.576054955839058  0.8268599473461825 		Uiso   ? 		C 		0.545437
C 1.0  		0.4238986154271559 		0.2995583905789991  0.8237722234862027 		Uiso   ? 		C 		0.547750
C 1.0  		0.3990224389385356 		0.7993130520117764  0.8237722234862027 		Uiso   ? 		C 		0.547750
C 1.0  		0.9241352425463158 		0.2983316977428852  0.8262099002177656 		Uiso   ? 		C 		0.547750
C 1.0  		0.8828467020782771 		0.7941609421000982  0.8307602301166834 		Uiso   ? 		C 		0.547750
C 1.0  		0.10872883029494423 		0.17198233562315995  0.8237722234862027 		Uiso   ? 		C 		0.547117
C 1.0  		0.07816356210329267 		0.6692836113837096  0.8283225533851204 		Uiso   ? 		C 		0.547117
C 1.0  		0.6115066801323096 		0.16903827281648676  0.8266974355640783 		Uiso   ? 		C 		0.547117
C 1.0  		0.5773135833527614 		0.6692836113837096  0.8263724119998699 		Uiso   ? 		C 		0.547117
C 1.0  		0.18458473658374433 		0.18302257114818452  0.7469041505509149 		Uiso   ? 		C 		-0.138192
C 1.0  		0.15084076161098892 		0.6820412168792934  0.7490168037182695 		Uiso   ? 		C 		-0.138192
C 1.0  		0.6924818941597116 		0.189892051030422  0.7451165209477687 		Uiso   ? 		C 		-0.138192
C 1.0  		0.6507992021126849 		0.6798331697742885  0.7482042448077485 		Uiso   ? 		C 		-0.138192
C 1.0  		0.11067872242104633 		0.3947497546614328  0.8320603243735171 		Uiso   ? 		C 		0.542730
C 1.0  		0.08024483808905741 		0.8940137389597645  0.8333604186303507 		Uiso   ? 		C 		0.542730
C 1.0  		0.6115199876381892 		0.3930323846908735  0.829622647641954 		Uiso   ? 		C 		0.542730
C 1.0  		0.5765667364694682 		0.8930323846908735  0.8323853479377255 		Uiso   ? 		C 		0.542730
C 1.0  		0.3326130006710577 		0.39450441609421005  0.8315727890272044 		Uiso   ? 		C 		0.543643
C 1.0  		0.3005931156308921 		0.8922963689892052  0.825559853089349 		Uiso   ? 		C 		0.543643
C 1.0  		0.8328737602217451 		0.3920510304219824  0.8328728832840381 		Uiso   ? 		C 		0.543643
C 1.0  		0.7992283231437365 		0.8925417075564279  0.8322228361556213 		Uiso   ? 		C 		0.543643
C 1.0  		0.04695387092751527 		0.18400392541707558  0.7473916858972275 		Uiso   ? 		C 		-0.134422
C 1.0  		0.01201804682557106 		0.6874386653581944  0.7532421100529788 		Uiso   ? 		C 		-0.134422
C 1.0  		0.5450742647037355 		0.18449460255152111  0.7485292683719569 		Uiso   ? 		C 		-0.134422
C 1.0  		0.5152584291992306 		0.6739450441609421  0.7522670393603536 		Uiso   ? 		C 		-0.134422
C 1.0  		0.19194862841873478 		0.9882237487733071  0.7410537263951635 		Uiso   ? 		C 		0.124253
C 1.0  		0.19338268916927698 		0.481108930323847  0.7408912146130594 		Uiso   ? 		C 		0.124253
C 1.0  		0.6946058160984638 		0.9914131501472033  0.7400786557025384 		Uiso   ? 		C 		0.124253
C 1.0  		0.6970192312905619 		0.4798822374877331  0.7378034907530796 		Uiso   ? 		C 		0.124253
C 1.0  		0.017474768601834965 		0.15947006869479885  0.7386160496636005 		Uiso   ? 		C 		0.123990
C 1.0  		0.9823438768790347 		0.6663395485770364  0.7423538206519972 		Uiso   ? 		C 		0.123990
C 1.0  		0.5146553592661655 		0.16020608439646714  0.7389410732278089 		Uiso   ? 		C 		0.123990
C 1.0  		0.48627872171203546 		0.6521099116781158  0.7425163324341014 		Uiso   ? 		C 		0.123990
C 1.0  		0.34345696951295535 		0.3120706575073602  0.7382910260993922 		Uiso   ? 		C 		0.124267
C 1.0  		0.31266378773553205 		0.8123159960745829  0.7394286085741215 		Uiso   ? 		C 		0.124267
C 1.0  		0.8410933873488294 		0.30691854759568205  0.7391035850099131 		Uiso   ? 		C 		0.124267
C 1.0  		0.802830045539342 		0.8066732090284593  0.7387785614457048 		Uiso   ? 		C 		0.124267
C 1.0  		0.20128096760780168 		0.9847890088321886  0.7847693957811941 		Uiso   ? 		C 		-0.073839
C 1.0  		0.21114442673771217 		0.48773307163886165  0.7837943250885689 		Uiso   ? 		C 		-0.073839
C 1.0  		0.7085057869873171 		0.9847890088321886  0.7831442779601521 		Uiso   ? 		C 		-0.073839
C 1.0  		0.7094927340997043 		0.485279685966634  0.7823317190496311 		Uiso   ? 		C 		-0.073839
C 1.0  		0.22228887849933285 		0.009813542688910697  0.7498293626287905 		Uiso   ? 		C 		-0.134821
C 1.0  		0.19911265951177504 		0.509568204121688  0.7522670393603536 		Uiso   ? 		C 		-0.134821
C 1.0  		0.7225932057169621 		0.015947006869479884  0.7490168037182695 		Uiso   ? 		C 		-0.134821
C 1.0  		0.7082827770449014 		0.5100588812561335  0.7477167094614359 		Uiso   ? 		C 		-0.134821
C 1.0  		0.32606055389586786 		0.3236015701668302  0.7496668508466864 		Uiso   ? 		C 		-0.135019
C 1.0  		0.28727167664773023 		0.8155053974484789  0.7483667565898527 		Uiso   ? 		C 		-0.135019
C 1.0  		0.8237626636615731 		0.3194308145240432  0.7506419215393115 		Uiso   ? 		C 		-0.135019
C 1.0  		0.7879922797072367 		0.8199214916584888  0.7511294568856242 		Uiso   ? 		C 		-0.135019
C 1.0  		0.016560425231273004 		0.18866535819430816  0.7782689244970259 		Uiso   ? 		C 		-0.074058
C 1.0  		0.9833178532656406 		0.6967615309126595  0.7826567426138394 		Uiso   ? 		C 		-0.074058
C 1.0  		0.5149918515898732 		0.19062806673209032  0.7779439009328175 		Uiso   ? 		C 		-0.074058
C 1.0  		0.4852108702189214 		0.6869479882237488  0.7789189716254428 		Uiso   ? 		C 		-0.074058
C 1.0  		0.3142956051344054 		0.2843473994111875  0.7779439009328175 		Uiso   ? 		C 		-0.073905
C 1.0  		0.2847445455178633 		0.7841020608439648  0.7800565541001722 		Uiso   ? 		C 		-0.073905
C 1.0  		0.8184556745257029 		0.2845927379784102  0.7808691130106932 		Uiso   ? 		C 		-0.073905
C 1.0  		0.7777147937592038 		0.780667320902846  0.7808691130106932 		Uiso   ? 		C 		-0.073905
C 1.0  		0.3118747349029717 		0.9798822374877332  0.7399161439204341 		Uiso   ? 		C 		0.121249
C 1.0  		0.3094242238522053 		0.4909224730127576  0.7400786557025384 		Uiso   ? 		C 		0.121249
C 1.0  		0.80649667578232 		0.9789008832188422  0.7408912146130594 		Uiso   ? 		C 		0.121249
C 1.0  		0.814563647685059 		0.4867517173699706  0.7389410732278089 		Uiso   ? 		C 		0.121249
C 1.0  		0.018664540746638286 		0.3042198233562316  0.7369909318425586 		Uiso   ? 		C 		0.121449
C 1.0  		0.9814462453085382 		0.8005397448478901  0.7423538206519972 		Uiso   ? 		C 		0.121449
C 1.0  		0.5188877571362972 		0.31231599607458294  0.7387785614457048 		Uiso   ? 		C 		0.121449
C 1.0  		0.48561703640186205 		0.8088812561334643  0.7412162381772678 		Uiso   ? 		C 		0.121449
C 1.0  		0.18970942237729627 		0.15799803729146222  0.7384535378814963 		Uiso   ? 		C 		0.121617
C 1.0  		0.1573717993900003 		0.6589793915603533  0.7395911203562258 		Uiso   ? 		C 		0.121617
C 1.0  		0.6929142697585651 		0.16143277723258098  0.7379660025351839 		Uiso   ? 		C 		0.121617
C 1.0  		0.659864757245151 		0.6597154072620217  0.7376409789709752 		Uiso   ? 		C 		0.121617
C 1.0  		0.22545216638229773 		0.011040235525024535  0.7729060356875873 		Uiso   ? 		C 		-0.026989
C 1.0  		0.2086266555921969 		0.5120215897939157  0.774206129944421 		Uiso   ? 		C 		-0.026989
C 1.0  		0.728746838124925 		0.014229636898920513  0.7717684532128578 		Uiso   ? 		C 		-0.026989
C 1.0  		0.7137265280953843 		0.5120215897939157  0.7699808236097118 		Uiso   ? 		C 		-0.026989
C 1.0  		0.29939653489771667 		0.9855250245338569  0.7836318133064647 		Uiso   ? 		C 		-0.080327
C 1.0  		0.2957655772786248 		0.485279685966634  0.7842818604348815 		Uiso   ? 		C 		-0.080327
C 1.0  		0.7966823688215445 		0.9830716388616291  0.7852569311275067 		Uiso   ? 		C 		-0.080327
C 1.0  		0.798911438094813 		0.4830716388616291  0.7826567426138394 		Uiso   ? 		C 		-0.080327
C 1.0  		0.018312629524791735 		0.27674190382728164  0.7771313420222966 		Uiso   ? 		C 		-0.080372
C 1.0  		0.9805661096205663 		0.7826300294406281  0.7849319075632983 		Uiso   ? 		C 		-0.080372
C 1.0  		0.5172521642552654 		0.2831207065750736  0.7790814834075469 		Uiso   ? 		C 		-0.080372
C 1.0  		0.4878874587261911 		0.7777232580961728  0.7803815776643805 		Uiso   ? 		C 		-0.080372
C 1.0  		0.21699118053206662 		0.1862119725220805  0.7787564598433385 		Uiso   ? 		C 		-0.080140
C 1.0  		0.18050019351822366 		0.6822865554465163  0.7810316247927974 		Uiso   ? 		C 		-0.080140
C 1.0  		0.7221983044633892 		0.18940137389597647  0.7776188773686092 		Uiso   ? 		C 		-0.080140
C 1.0  		0.6878409778592628 		0.6871933267909717  0.7761562713296714 		Uiso   ? 		C 		-0.080140
C 1.0  		0.19538564657816807 		0.45706575073601574  0.75096694510352 		Uiso   ? 		C 		-0.134695
C 1.0  		0.17180186528212144 		0.9602551521099117  0.7522670393603536 		Uiso   ? 		C 		-0.134695
C 1.0  		0.6975588583175507 		0.45461236506378805  0.7491793155003738 		Uiso   ? 		C 		-0.134695
C 1.0  		0.6727919414257035 		0.9639352306182533  0.752592062924562 		Uiso   ? 		C 		-0.134695
C 1.0  		0.48640027117575246 		0.15554465161923456  0.7477167094614359 		Uiso   ? 		C 		-0.134704
C 1.0  		0.45597979757326457 		0.6454857703631011  0.7504794097572074 		Uiso   ? 		C 		-0.134704
C 1.0  		0.9874868770454437 		0.1543179587831207  0.7467416387688106 		Uiso   ? 		C 		-0.134704
C 1.0  		0.9526911503365505 		0.6614327772325811  0.751779504014041 		Uiso   ? 		C 		-0.134704
C 1.0  		0.2035348501714345 		0.4597644749754662  0.7724185003412747 		Uiso   ? 		C 		-0.027348
C 1.0  		0.174465758326601 		0.9587831207065751  0.774206129944421 		Uiso   ? 		C 		-0.027348
C 1.0  		0.7021854765824179 		0.45706575073601574  0.771118406084441 		Uiso   ? 		C 		-0.027348
C 1.0  		0.6796313227596196 		0.9597644749754662  0.7735560828160041 		Uiso   ? 		C 		-0.027348
C 1.0  		0.33375998923137806 		0.2735525024533857  0.7672181233139402 		Uiso   ? 		C 		-0.027696
C 1.0  		0.30811695298883457 		0.7777232580961728  0.7699808236097118 		Uiso   ? 		C 		-0.027696
C 1.0  		0.8341434191083397 		0.2713444553483808  0.7694932882633991 		Uiso   ? 		C 		-0.027696
C 1.0  		0.7959370556952953 		0.7703631010794898  0.7696558000455032 		Uiso   ? 		C 		-0.027696
C 1.0  		0.48606912249912093 		0.16805691854759572  0.7677056586602529 		Uiso   ? 		C 		-0.027457
C 1.0  		0.4548905026760982 		0.6641315014720315  0.7686807293528781 		Uiso   ? 		C 		-0.027457
C 1.0  		0.9864941118743865 		0.16805691854759572  0.7672181233139402 		Uiso   ? 		C 		-0.027457
C 1.0  		0.9536919481821587 		0.6732090284592739  0.7729060356875873 		Uiso   ? 		C 		-0.027457
C 1.0  		0.30402941852361426 		0.4627085377821394  0.7516169922319368 		Uiso   ? 		C 		-0.138250
C 1.0  		0.2843979091273451 		0.9551030421982336  0.7493418272824779 		Uiso   ? 		C 		-0.138250
C 1.0  		0.8046407619863476 		0.4575564278704613  0.7504794097572074 		Uiso   ? 		C 		-0.138250
C 1.0  		0.7789058932138078 		0.9555937193326792  0.7514544804498325 		Uiso   ? 		C 		-0.138250
C 1.0  		0.32793158421775465 		0.010304219823356234  0.7503168979751031 		Uiso   ? 		C 		-0.138127
C 1.0  		0.303955659511358 		0.5139842983316978  0.7514544804498325 		Uiso   ? 		C 		-0.138127
C 1.0  		0.8294016199644076 		0.006869479882237488  0.7524295511424578 		Uiso   ? 		C 		-0.138127
C 1.0  		0.8108694463084938 		0.5125122669283612  0.7485292683719569 		Uiso   ? 		C 		-0.138127
C 1.0  		0.4886330815233053 		0.2904808635917566  0.7488542919361653 		Uiso   ? 		C 		-0.138350
C 1.0  		0.45755099142639166 		0.7816486751717371  0.7490168037182695 		Uiso   ? 		C 		-0.138350
C 1.0  		0.9887691625790807 		0.2814033366045143  0.746254103422498 		Uiso   ? 		C 		-0.138350
C 1.0  		0.9509220966114705 		0.7794406280667322  0.7516169922319368 		Uiso   ? 		C 		-0.138350
C 1.0  		0.2944168845484455 		0.4587831207065751  0.7733935710338999 		Uiso   ? 		C 		-0.027825
C 1.0  		0.27875909045600633 		0.9565750736015702  0.7714434296486494 		Uiso   ? 		C 		-0.027825
C 1.0  		0.7963776016001953 		0.4563297350343475  0.7714434296486494 		Uiso   ? 		C 		-0.027825
C 1.0  		0.7730874258197515 		0.9575564278704614  0.7735560828160041 		Uiso   ? 		C 		-0.027825
C 1.0  		0.4876805485407515 		0.27625122669283614  0.7686807293528781 		Uiso   ? 		C 		-0.028187
C 1.0  		0.45784058060471916 		0.766928361138371  0.7690057529170865 		Uiso   ? 		C 		-0.028187
C 1.0  		0.988765146241805 		0.26864573110893036  0.7667305879676276 		Uiso   ? 		C 		-0.028187
C 1.0  		0.951450321077596 		0.7698724239450442  0.7732310592517957 		Uiso   ? 		C 		-0.028187
C 1.0  		0.1915111500279224 		0.42934249263984303  0.7847693957811941 		Uiso   ? 		C 		0.651493
C 1.0  		0.15603437158918887 		0.9278704612365065  0.785581954691715 		Uiso   ? 		C 		0.651493
C 1.0  		0.6928913614132167 		0.4261530912659471  0.7824942308317353 		Uiso   ? 		C 		0.651493
C 1.0  		0.6602031545138748 		0.9298331697742886  0.7850944193454026 		Uiso   ? 		C 		0.651493
C 1.0  		0.45518768452525676 		0.1543179587831207  0.7803815776643805 		Uiso   ? 		C 		0.651838
C 1.0  		0.42350296449899816 		0.6523552502453386  0.780706601228589 		Uiso   ? 		C 		0.651838
C 1.0  		0.9565109175141081 		0.15186457311089305  0.7805440894464848 		Uiso   ? 		C 		0.651838
C 1.0  		0.9235532375306905 		0.6562806673209028  0.7850944193454026 		Uiso   ? 		C 		0.651838
C 1.0  		0.28801658417813336 		0.42983316977428854  0.7850944193454026 		Uiso   ? 		C 		0.654787
C 1.0  		0.25605367753441066 		0.9268891069676154  0.7820066954854227 		Uiso   ? 		C 		0.654787
C 1.0  		0.7883671680901794 		0.42713444553483815  0.7833067897422563 		Uiso   ? 		C 		0.654787
C 1.0  		0.7526866084972014 		0.9273797841020609  0.7842818604348815 		Uiso   ? 		C 		0.654787
C 1.0  		0.45600410204416125 		0.2553974484789009  0.7797315305359638 		Uiso   ? 		C 		0.655051
C 1.0  		0.42736670493934387 		0.7497546614327774  0.7805440894464848 		Uiso   ? 		C 		0.655051
C 1.0  		0.9588147978464422 		0.2529440628066732  0.7794065069717554 		Uiso   ? 		C 		0.655051
C 1.0  		0.919839566510837 		0.75  0.7839568368706731 		Uiso   ? 		C 		0.655051
C 1.0  		0.21256701611164328 		0.15186457311089305  0.7485292683719569 		Uiso   ? 		C 		-0.138577
C 1.0  		0.17488217179997367 		0.6459764474975467  0.7511294568856242 		Uiso   ? 		C 		-0.138577
C 1.0  		0.7152724686544268 		0.15260058881256136  0.7475541976793316 		Uiso   ? 		C 		-0.138577
C 1.0  		0.6816511640079457 		0.6518645731108931  0.7465791269867066 		Uiso   ? 		C 		-0.138577
C 1.0  		0.04665556821579946 		0.19700686947988227  0.7677056586602529 		Uiso   ? 		C 		-0.027710
C 1.0  		0.012440347173361677 		0.704857703631011  0.7725810121233788 		Uiso   ? 		C 		-0.027710
C 1.0  		0.5459785328232347 		0.2011776251226693  0.7672181233139402 		Uiso   ? 		C 		-0.027710
C 1.0  		0.5141691343020642 		0.6925907752698724  0.7694932882633991 		Uiso   ? 		C 		-0.027710
C 1.0  		0.3112958662171815 		0.30937193326790974  0.7698183118276075 		Uiso   ? 		C 		-0.026694
C 1.0  		0.2764719907394855 		0.8049558390579  0.7693307764812949 		Uiso   ? 		C 		-0.026694
C 1.0  		0.8105511307261477 		0.3061825318940138  0.7707933825202327 		Uiso   ? 		C 		-0.026694
C 1.0  		0.7738322301265331 		0.8052011776251228  0.7712809178665453 		Uiso   ? 		C 		-0.026694
C 1.0  		0.34663635715289637 		0.28655544651619236  0.7469041505509149 		Uiso   ? 		C 		-0.134561
C 1.0  		0.32490134428435147 		0.7951422963689893  0.7512919686677284 		Uiso   ? 		C 		-0.134561
C 1.0  		0.844697764364036 		0.2814033366045143  0.7483667565898527 		Uiso   ? 		C 		-0.134561
C 1.0  		0.8055515978391019 		0.780667320902846  0.7475541976793316 		Uiso   ? 		C 		-0.134561
C 1.0  		0.24591867563467926 		0.042198233562315994  0.7841193486527773 		Uiso   ? 		C 		0.651580
C 1.0  		0.21426680157333639 		0.5407262021589795  0.7867195371664445 		Uiso   ? 		C 		0.651580
C 1.0  		0.7485343038161042 		0.04317958783120707  0.7829817661780478 		Uiso   ? 		C 		0.651580
C 1.0  		0.7142909340048635 		0.5394995093228656  0.7820066954854227 		Uiso   ? 		C 		0.651580
C 1.0  		0.047055709892826675 		0.29980372914622183  0.7681931940065655 		Uiso   ? 		C 		-0.027777
C 1.0  		0.010150455205744258 		0.8039744847890089  0.7756687359833587 		Uiso   ? 		C 		-0.027777
C 1.0  		0.5467225530475575 		0.30593719332679103  0.7701433353918158 		Uiso   ? 		C 		-0.027777
C 1.0  		0.5161814172874332 		0.8020117762512268  0.7704683589560242 		Uiso   ? 		C 		-0.027777
C 1.0  		0.3434543148933543 		0.2517173699705594  0.7789189716254428 		Uiso   ? 		C 		0.651944
C 1.0  		0.3157345966375373 		0.7534347399411189  0.7800565541001722 		Uiso   ? 		C 		0.651944
C 1.0  		0.8457917564573151 		0.2517173699705594  0.7795690187538595 		Uiso   ? 		C 		0.651944
C 1.0  		0.8060235247676215 		0.7480372914622179  0.7802190658822764 		Uiso   ? 		C 		0.651944
C 1.0  		0.2477915764937083 		0.046368989205103045  0.8757759937595475 		Uiso   ? 		C 		0.570096
C 1.0  		0.21944308770838122 		0.5498037291462219  0.8790262294016316 		Uiso   ? 		C 		0.570096
C 1.0  		0.7490095662230623 		0.04710500490677135  0.8775636233626938 		Uiso   ? 		C 		0.570096
C 1.0  		0.7060760384817659 		0.5358194308145241  0.873663340592193 		Uiso   ? 		C 		0.570096
C 1.0  		0.4583288481453321 		0.16315014720314036  0.8739883641564012 		Uiso   ? 		C 		0.566765
C 1.0  		0.4284580424130219 		0.6597154072620217  0.8733383170279844 		Uiso   ? 		C 		0.566765
C 1.0  		0.9592840701553608 		0.15996074582924438  0.8741508759385054 		Uiso   ? 		C 		0.566765
C 1.0  		0.917783034999689 		0.6557899901864573  0.8757759937595475 		Uiso   ? 		C 		0.566765
C 1.0  		0.34284297143062087 		0.2568694798822375  0.8717131992069425 		Uiso   ? 		C 		0.563364
C 1.0  		0.3262889418932336 		0.7634936211972523  0.8731758052458803 		Uiso   ? 		C 		0.563364
C 1.0  		0.8488102497511163 		0.2603042198233562  0.8713881756427341 		Uiso   ? 		C 		0.563364
C 1.0  		0.8006783116118856 		0.7475466143277725  0.8712256638606298 		Uiso   ? 		C 		0.563364
C 1.0  		0.07519285926095216 		0.2154072620215898  0.8710631520785257 		Uiso   ? 		C 		0.563915
C 1.0  		0.04471741543065916 		0.7124631992149166  0.8782136704911105 		Uiso   ? 		C 		0.563915
C 1.0  		0.5761480812709809 		0.21221786064769382  0.8733383170279844 		Uiso   ? 		C 		0.563915
C 1.0  		0.5421105007826226 		0.713199214916585  0.8730132934637761 		Uiso   ? 		C 		0.563915
C 1.0  		0.1867290154718653 		0.4261530912659471  0.8770760880163812 		Uiso   ? 		C 		0.573247
C 1.0  		0.16099414669932532 		0.9241903827281649  0.8785386940553189 		Uiso   ? 		C 		0.573247
C 1.0  		0.6906591631087533 		0.4229636898920511  0.8777261351447979 		Uiso   ? 		C 		0.573247
C 1.0  		0.6539731084740543 		0.9224730127576055  0.8783761822732148 		Uiso   ? 		C 		0.573247
C 1.0  		0.2866880419500797 		0.3115799803729147  0.8739883641564012 		Uiso   ? 		C 		0.568852
C 1.0  		0.2576605096035502 		0.8128066732090286  0.8731758052458803 		Uiso   ? 		C 		0.568852
C 1.0  		0.7868435582412696 		0.31231599607458294  0.874638411284818 		Uiso   ? 		C 		0.568852
C 1.0  		0.7503525712274266 		0.8083905789990187  0.8743133877206096 		Uiso   ? 		C 		0.568852
C 1.0  		0.07787417937220846 		0.21736997055937196  0.7790814834075469 		Uiso   ? 		C 		0.652273
C 1.0  		0.04339619061044553 		0.7212953876349363  0.7842818604348815 		Uiso   ? 		C 		0.652273
C 1.0  		0.5761413759062303 		0.21687929342492643  0.779894042318068 		Uiso   ? 		C 		0.652273
C 1.0  		0.5437534798872421 		0.7139352306182533  0.7805440894464848 		Uiso   ? 		C 		0.652273
C 1.0  		0.19691344480372286 		0.19578017664376843  0.7677056586602529 		Uiso   ? 		C 		-0.028518
C 1.0  		0.16173027188059239 		0.6923454367026497  0.7701433353918158 		Uiso   ? 		C 		-0.028518
C 1.0  		0.7064535814843097 		0.2033856722276742  0.7664055644034192 		Uiso   ? 		C 		-0.028518
C 1.0  		0.6637653943955619 		0.6925907752698724  0.7681931940065655 		Uiso   ? 		C 		-0.028518
C 1.0  		0.29147218467477454 		0.3211481844946026  0.7810316247927974 		Uiso   ? 		C 		0.651221
C 1.0  		0.2530754508369869 		0.8125613346418057  0.7800565541001722 		Uiso   ? 		C 		0.651221
C 1.0  		0.7886507671704672 		0.31550539744847894  0.7820066954854227 		Uiso   ? 		C 		0.651221
C 1.0  		0.7531827022651222 		0.8157507360157018  0.7823317190496311 		Uiso   ? 		C 		0.651221
C 1.0  		0.3210834893504502 		0.012757605495583907  0.7720934767770663 		Uiso   ? 		C 		-0.028327
C 1.0  		0.2975962377805127 		0.5110402355250246  0.7732310592517957 		Uiso   ? 		C 		-0.028327
C 1.0  		0.8232808335213602 		0.009077526987242394  0.7748561770728377 		Uiso   ? 		C 		-0.028327
C 1.0  		0.8028429130415015 		0.5100588812561335  0.7707933825202327 		Uiso   ? 		C 		-0.028327
C 1.0  		0.2266942197274312 		0.16609421000981356  0.7683557057886696 		Uiso   ? 		C 		-0.027196
C 1.0  		0.1868757150060452 		0.6584887144259078  0.7720934767770663 		Uiso   ? 		C 		-0.027196
C 1.0  		0.7288191666037593 		0.16609421000981356  0.767868170442357 		Uiso   ? 		C 		-0.027196
C 1.0  		0.6937016856104601 		0.663640824337586  0.7665680761855234 		Uiso   ? 		C 		-0.027196
C 1.0  		0.07757785042125656 		0.3145240431795879  0.7808691130106932 		Uiso   ? 		C 		0.654082
C 1.0  		0.04141532305657003 		0.8155053974484789  0.7867195371664445 		Uiso   ? 		C 		0.654082
C 1.0  		0.578199915586016 		0.3174681059862611  0.7820066954854227 		Uiso   ? 		C 		0.654082
C 1.0  		0.5461230521494075 		0.8159960745829246  0.7826567426138394 		Uiso   ? 		C 		0.654082
C 1.0  		0.18974492296181303 		0.21884200196270856  0.7781064127149219 		Uiso   ? 		C 		0.655598
C 1.0  		0.15471726632987245 		0.7161432777232581  0.7803815776643805 		Uiso   ? 		C 		0.655598
C 1.0  		0.6922378808169638 		0.21957801766437687  0.7784314362791301 		Uiso   ? 		C 		0.655598
C 1.0  		0.6537928821161215 		0.7134445534838078  0.779894042318068 		Uiso   ? 		C 		0.655598
C 1.0  		0.28862792764086675 		0.42468105986261045  0.8782136704911105 		Uiso   ? 		C 		0.568218
C 1.0  		0.26260816688611216 		0.9263984298331698  0.8739883641564012 		Uiso   ? 		C 		0.568218
C 1.0  		0.784345187923295 		0.42419038272816495  0.8770760880163812 		Uiso   ? 		C 		0.568218
C 1.0  		0.7492605528949114 		0.9222276741903828  0.8767510644521727 		Uiso   ? 		C 		0.568218
C 1.0  		0.07438842193812661 		0.3081452404317959  0.8743133877206096 		Uiso   ? 		C 		0.571405
C 1.0  		0.04489634888666527 		0.8135426889106968  0.8795137647479442 		Uiso   ? 		C 		0.571405
C 1.0  		0.5750279141696628 		0.3145240431795879  0.8741508759385054 		Uiso   ? 		C 		0.571405
C 1.0  		0.5382915865032714 		0.810107948969578  0.8751259466311306 		Uiso   ? 		C 		0.571405
C 1.0  		0.04797539691046476 		0.3135426889106968  0.7485292683719569 		Uiso   ? 		C 		-0.138498
C 1.0  		0.010577452749647664 		0.8103532875368008  0.7537296453992913 		Uiso   ? 		C 		-0.138498
C 1.0  		0.5472326695880688 		0.31673209028459276  0.7490168037182695 		Uiso   ? 		C 		-0.138498
C 1.0  		0.5146014410851699 		0.8196761530912661  0.7522670393603536 		Uiso   ? 		C 		-0.138498
C 1.0  		0.18899147393739096 		0.2139352306182532  0.8712256638606298 		Uiso   ? 		C 		0.571749
C 1.0  		0.1580756218336934 		0.7139352306182533  0.872850781681672 		Uiso   ? 		C 		0.571749
C 1.0  		0.6913617614662675 		0.21442590775269874  0.8717131992069425 		Uiso   ? 		C 		0.571749
C 1.0  		0.6568991916026434 		0.7154072620215899  0.8720382227711508 		Uiso   ? 		C 		0.571749
C 1.0  		0.4579822461626878 		0.25637880274779196  0.8726882698995677 		Uiso   ? 		C 		0.565273
C 1.0  		0.43272934516185646 		0.7536800785083416  0.8723632463353593 		Uiso   ? 		C 		0.565273
C 1.0  		0.9606220067756401 		0.2561334641805692  0.8726882698995677 		Uiso   ? 		C 		0.565273
C 1.0  		0.9152062428812191 		0.7522080471050049  0.8752884584132349 		Uiso   ? 		C 		0.565273
C 1.0  		0.34560482473463183 		0.04735034347399412  0.8769135762342769 		Uiso   ? 		C 		0.570065
C 1.0  		0.31564419464096305 		0.5441609421000981  0.8764260408879643 		Uiso   ? 		C 		0.570065
C 1.0  		0.8458655842853192 		0.04489695780176644  0.8774011115805895 		Uiso   ? 		C 		0.570065
C 1.0  		0.8084502130577254 		0.5382728164867517  0.8744758995027139 		Uiso   ? 		C 		0.570065
C 1.0  		0.24301274300821568 		0.1575073601570167  0.872850781681672 		Uiso   ? 		C 		0.571340
C 1.0  		0.2183423558424777 		0.6619234543670266  0.873825852374297 		Uiso   ? 		C 		0.571340
C 1.0  		0.7500096488019594 		0.16045142296368992  0.8731758052458803 		Uiso   ? 		C 		0.571340
C 1.0  		0.7041668873636351 		0.6501472031403337  0.8722007345532551 		Uiso   ? 		C 		0.571340
C 1.0  		0.3419991204096246 		0.042688910696761534  0.7839568368706731 		Uiso   ? 		C 		0.655138
C 1.0  		0.3098652785765732 		0.5419528949950932  0.7839568368706731 		Uiso   ? 		C 		0.655138
C 1.0  		0.8424723746479449 		0.04023552502453386  0.7844443722169857 		Uiso   ? 		C 		0.655138
C 1.0  		0.8107963681550746 		0.5399901864573111  0.7826567426138394 		Uiso   ? 		C 		0.655138
C 1.0  		0.19015316612913913 		0.19160942100098138  0.5281632918386583 		Uiso   ? 		C 		-0.135144
C 1.0  		0.15371915751173912 		0.6869479882237488  0.5328761335196801 		Uiso   ? 		C 		-0.135144
C 1.0  		0.6828345060509894 		0.17909715407262022  0.5306009685702213 		Uiso   ? 		C 		-0.135144
C 1.0  		0.6532680275363083 		0.6817958783120707  0.5309259921344297 		Uiso   ? 		C 		-0.135144
C 1.0  		0.247540823378336 		0.15848871442590778  0.3424123248935548 		Uiso   ? 		C 		0.659417
C 1.0  		0.21253729917792272 		0.6545632973503436  0.3437124191503884 		Uiso   ? 		C 		0.659417
C 1.0  		0.742855218548388 		0.15039254170755645  0.34354990736828417 		Uiso   ? 		C 		0.659417
C 1.0  		0.7141387187842383 		0.653091265947007  0.34224981311145053 		Uiso   ? 		C 		0.659417
C 1.0  		0.2467236905927204 		0.15897939156035332  0.5619657425163325 		Uiso   ? 		C 		0.659564
C 1.0  		0.2125942775743656 		0.6538272816486752  0.5621282542984366 		Uiso   ? 		C 		0.659564
C 1.0  		0.7429450429097465 		0.15014720314033367  0.5622907660805408 		Uiso   ? 		C 		0.659564
C 1.0  		0.7141715647491539 		0.6535819430814525  0.5634283485552702 		Uiso   ? 		C 		0.659564
C 1.0  		0.19881388238846526 		0.07973503434739942  0.38677804140800204 		Uiso   ? 		C 		0.543225
C 1.0  		0.1663931404045614 		0.5763002944062807  0.3879156238827315 		Uiso   ? 		C 		0.543225
C 1.0  		0.6975851709570852 		0.07090284592737979  0.3898657652679819 		Uiso   ? 		C 		0.543225
C 1.0  		0.6688686711929354 		0.5736015701668303  0.39100334774271134 		Uiso   ? 		C 		0.543225
C 1.0  		0.19890370674982386 		0.07948969578017666  0.6090941593265512 		Uiso   ? 		C 		0.543237
C 1.0  		0.16726725158661987 		0.5750736015701668  0.610556765365489 		Uiso   ? 		C 		0.543237
C 1.0  		0.6975938844904735 		0.07262021589793916  0.6092566711086553 		Uiso   ? 		C 		0.543237
C 1.0  		0.6675849895337502 		0.5718842001962708  0.6079565768518217 		Uiso   ? 		C 		0.543237
C 1.0  		0.3111162174944644 		0.30986261040235524  0.6903500503786525 		Uiso   ? 		C 		-0.129006
C 1.0  		0.28141164975537014 		0.8152600588812562  0.6903500503786525 		Uiso   ? 		C 		-0.129006
C 1.0  		0.8218743439044052 		0.31820412168792933  0.6887249325576105 		Uiso   ? 		C 		-0.129006
C 1.0  		0.7869123792022958 		0.8164867517173701  0.6882373972112978 		Uiso   ? 		C 		-0.129006
C 1.0  		0.419471184344042 		0.07311089303238469  0.38954074170377345 		Uiso   ? 		C 		0.543226
C 1.0  		0.3878521562476147 		0.5721295387634936  0.3908408359606071 		Uiso   ? 		C 		0.543226
C 1.0  		0.9221766368868256 		0.073846908734053  0.39376604803848275 		Uiso   ? 		C 		0.543226
C 1.0  		0.893705477775224 		0.577036310107949  0.39246595378164917 		Uiso   ? 		C 		0.543226
C 1.0  		0.4216135582871468 		0.07654563297350345  0.6082816004160301 		Uiso   ? 		C 		0.543239
C 1.0  		0.38880938642628127 		0.5753189401373897  0.6081190886339259 		Uiso   ? 		C 		0.543239
C 1.0  		0.923819615991445 		0.0745829244357213  0.6082816004160301 		Uiso   ? 		C 		0.543239
C 1.0  		0.892364817719596 		0.576054955839058  0.6097442064549679 		Uiso   ? 		C 		0.543239
C 1.0  		0.42725026556622625 		0.30201177625122677  0.38824064744693987 		Uiso   ? 		C 		0.543216
C 1.0  		0.3932193904426185 		0.7983316977428853  0.3879156238827315 		Uiso   ? 		C 		0.543216
C 1.0  		0.9209391086984355 		0.2966143277723259  0.3898657652679819 		Uiso   ? 		C 		0.543216
C 1.0  		0.8873922095151741 		0.798577036310108  0.392303441999545 		Uiso   ? 		C 		0.543216
C 1.0  		0.4238087910657973 		0.29980372914622183  0.6097442064549679 		Uiso   ? 		C 		0.543228
C 1.0  		0.3891337265145405 		0.8007850834151129  0.6095816946728637 		Uiso   ? 		C 		0.543228
C 1.0  		0.9211100438877642 		0.29440628066732094  0.6120193714044267 		Uiso   ? 		C 		0.543228
C 1.0  		0.8931382796146481 		0.8002944062806674  0.6087691357623427 		Uiso   ? 		C 		0.543228
C 1.0  		0.10556554241197938 		0.17075564278704614  0.38694055319010623 		Uiso   ? 		C 		0.543222
C 1.0  		0.07455986594692332 		0.6710009813542689  0.39165339487112816 		Uiso   ? 		C 		0.543222
C 1.0  		0.6094802711507286 		0.17051030421982336  0.3862905060616894 		Uiso   ? 		C 		0.543222
C 1.0  		0.573668327698088 		0.668792934249264  0.38759060031852305 		Uiso   ? 		C 		0.543222
C 1.0  		0.10897417094749269 		0.17247301275760551  0.6079565768518217 		Uiso   ? 		C 		0.543234
C 1.0  		0.07672637232155538 		0.6732090284592739  0.6079565768518217 		Uiso   ? 		C 		0.543234
C 1.0  		0.6115965044936682 		0.16879293424926398  0.6100692300191763 		Uiso   ? 		C 		0.543234
C 1.0  		0.5769301534757998 		0.6714916584887145  0.6090941593265512 		Uiso   ? 		C 		0.543234
C 1.0  		0.10986158963543075 		0.39524043179587837  0.39214093021744073 		Uiso   ? 		C 		0.543221
C 1.0  		0.08065440856618405 		0.8969578017664378  0.38905320635746093 		Uiso   ? 		C 		0.543221
C 1.0  		0.6102691519439196 		0.3918056918547596  0.38580297071537684 		Uiso   ? 		C 		0.543221
C 1.0  		0.5779643749215393 		0.8932777232580963  0.39181590665323235 		Uiso   ? 		C 		0.543221
C 1.0  		0.10852964311319097 		0.3959764474975467  0.6097442064549679 		Uiso   ? 		C 		0.543232
C 1.0  		0.07651847160641373 		0.8954857703631012  0.6147820717001982 		Uiso   ? 		C 		0.543232
C 1.0  		0.6089700513865954 		0.3930323846908735  0.6087691357623427 		Uiso   ? 		C 		0.543232
C 1.0  		0.5721526128922338 		0.8905789990186458  0.6082816004160301 		Uiso   ? 		C 		0.543232
C 1.0  		0.3309043296366069 		0.3927870461236507  0.3905158123963987 		Uiso   ? 		C 		0.543220
C 1.0  		0.29957890705578255 		0.8898429833169774  0.392303441999545 		Uiso   ? 		C 		0.543220
C 1.0  		0.8323589464851209 		0.3922963689892051  0.38937822992166926 		Uiso   ? 		C 		0.543220
C 1.0  		0.7986149715123654 		0.8913150147203142  0.3932785126921701 		Uiso   ? 		C 		0.543220
C 1.0  		0.3347882205790782 		0.3984298331697744  0.6116943478402184 		Uiso   ? 		C 		0.543231
C 1.0  		0.30121518079565157 		0.8952404317958784  0.6086066239802386 		Uiso   ? 		C 		0.543231
C 1.0  		0.8328254953586904 		0.39450441609421005  0.6082816004160301 		Uiso   ? 		C 		0.543231
C 1.0  		0.7982315416354038 		0.893523061825319  0.6092566711086553 		Uiso   ? 		C 		0.543231
C 1.0  		0.14192824018948094 		0.25368007850834157  0.4993987064062144 		Uiso   ? 		C 		0.605017
C 1.0  		0.11086357715934408 		0.7482826300294406  0.5002112653167354 		Uiso   ? 		C 		0.605017
C 1.0  		0.65913159635435 		0.25196270853778213  0.4989111710599018 		Uiso   ? 		C 		0.605017
C 1.0  		0.6136742729616252 		0.745829244357213  0.4995612181883186 		Uiso   ? 		C 		0.605017
C 1.0  		0.14564589313873622 		0.25049067713444556  0.7178145415542626 		Uiso   ? 		C 		0.605358
C 1.0  		0.1234510367613722 		0.7522080471050049  0.7197646829395131 		Uiso   ? 		C 		0.605358
C 1.0  		0.645523222812462 		0.2502453385672228  0.7189521240289921 		Uiso   ? 		C 		0.605358
C 1.0  		0.6174596260093494 		0.75  0.7194396593753046 		Uiso   ? 		C 		0.605358
C 1.0  		0.24997537230362166 		0.36310107948969583  0.4987486592777976 		Uiso   ? 		C 		0.605016
C 1.0  		0.22216382151780828 		0.8586849852796861  0.49972372997042286 		Uiso   ? 		C 		0.605016
C 1.0  		0.7580810082299462 		0.3572129538763494  0.4984236357135892 		Uiso   ? 		C 		0.605016
C 1.0  		0.7202996341921675 		0.8562315996074584  0.4987486592777976 		Uiso   ? 		C 		0.605016
C 1.0  		0.24350468280736542 		0.3442100098135427  0.7187896122468879 		Uiso   ? 		C 		0.605275
C 1.0  		0.22087813168998527 		0.8505888125613348  0.7186271004647836 		Uiso   ? 		C 		0.605275
C 1.0  		0.7458159837711612 		0.3390578999018646  0.7189521240289921 		Uiso   ? 		C 		0.605275
C 1.0  		0.7191191876238419 		0.844946025515211  0.7204147300679299 		Uiso   ? 		C 		0.605275
C 1.0  		0.14950493638296913 		0.35893032384690876  0.4979361003672766 		Uiso   ? 		C 		0.605015
C 1.0  		0.12629787959913347 		0.8645731108930325  0.5005362888809438 		Uiso   ? 		C 		0.605015
C 1.0  		0.6441161555602914 		0.34985279685966636  0.4980986121493808 		Uiso   ? 		C 		0.605015
C 1.0  		0.6085254203286721 		0.8498527968596664  0.5003737770988397 		Uiso   ? 		C 		0.605015
C 1.0  		0.1507584611047137 		0.34273797841020615  0.7178145415542626 		Uiso   ? 		C 		0.605305
C 1.0  		0.12957110793770854 		0.8515701668302258  0.7217148243247634 		Uiso   ? 		C 		0.605305
C 1.0  		0.6431414983148481 		0.34322865554465165  0.7191146358110962 		Uiso   ? 		C 		0.605305
C 1.0  		0.6106590807383885 		0.8515701668302258  0.7207397536321383 		Uiso   ? 		C 		0.605305
C 1.0  		0.27907853419954975 		0.1280667320902846  0.49972372997042286 		Uiso   ? 		C 		0.605015
C 1.0  		0.24139838708399297 		0.6111383709519137  0.49972372997042286 		Uiso   ? 		C 		0.605015
C 1.0  		0.7756571757933726 		0.11187438665358196  0.49923619462411023 		Uiso   ? 		C 		0.605015
C 1.0  		0.7475433059585677 		0.6077036310107949  0.5000487535346312 		Uiso   ? 		C 		0.605015
C 1.0  		0.0437911950876399 		0.3145240431795879  0.46835895602431177 		Uiso   ? 		C 		-0.135228
C 1.0  		0.013046278173271142 		0.8123159960745829  0.47030909740956217 		Uiso   ? 		C 		-0.135228
C 1.0  		0.5468887910407734 		0.31476938174681063  0.4688464913706243 		Uiso   ? 		C 		-0.135228
C 1.0  		0.5104326581604839 		0.8177134445534839  0.4690090031527286 		Uiso   ? 		C 		-0.135228
C 1.0  		0.27838206357157064 		0.12242394504416096  0.7199271947216173 		Uiso   ? 		C 		0.605407
C 1.0  		0.2477685305168645 		0.6221786064769382  0.7194396593753046 		Uiso   ? 		C 		0.605407
C 1.0  		0.7858368047054957 		0.1258586849852797  0.7178145415542626 		Uiso   ? 		C 		0.605407
C 1.0  		0.7428201579675914 		0.6101570166830227  0.7170019826437416 		Uiso   ? 		C 		0.605407
C 1.0  		0.04608176791409453 		0.19160942100098138  0.5294633860954919 		Uiso   ? 		C 		-0.130608
C 1.0  		0.013634885330025548 		0.6830225711481845  0.5312510156986381 		Uiso   ? 		C 		-0.130608
C 1.0  		0.5471750791485364 		0.18572129538763496  0.5306009685702213 		Uiso   ? 		C 		-0.130608
C 1.0  		0.5115756303835287 		0.6840039254170756  0.5306009685702213 		Uiso   ? 		C 		-0.130608
C 1.0  		0.3870606552426964 		0.21270853778213936  0.4995612181883186 		Uiso   ? 		C 		0.605015
C 1.0  		0.3558444922586452 		0.7193326790971541  0.4985861474956934 		Uiso   ? 		C 		0.605015
C 1.0  		0.8683001279972906 		0.20068694798822376  0.49923619462411023 		Uiso   ? 		C 		0.605015
C 1.0  		0.855371238020325 		0.7217860647693819  0.49988624175252705 		Uiso   ? 		C 		0.605015
C 1.0  		0.38643389288182406 		0.2208047105004907  0.7186271004647836 		Uiso   ? 		C 		0.605374
C 1.0  		0.3558203598271179 		0.7205593719332679  0.7184645886826795 		Uiso   ? 		C 		0.605374
C 1.0  		0.8893256995120754 		0.2163886162904809  0.7187896122468879 		Uiso   ? 		C 		0.605374
C 1.0  		0.8388998874758256 		0.7122178606476939  0.7183020769005752 		Uiso   ? 		C 		0.605374
C 1.0  		0.37713981212049674 		0.11211972522080473  0.5011863360093607 		Uiso   ? 		C 		0.605018
C 1.0  		0.34007703297358666 		0.6091756624141316  0.49988624175252705 		Uiso   ? 		C 		0.605018
C 1.0  		0.8779395178393355 		0.10819430814524045  0.5008613124451522 		Uiso   ? 		C 		0.605018
C 1.0  		0.8512098757271007 		0.6135917566241413  0.49988624175252705 		Uiso   ? 		C 		0.605018
C 1.0  		0.37977688370597407 		0.12929342492639845  0.7189521240289921 		Uiso   ? 		C 		0.605358
C 1.0  		0.3550300829083785 		0.6246319921491659  0.7191146358110962 		Uiso   ? 		C 		0.605358
C 1.0  		0.881917249480441 		0.12634936211972522  0.718139565118471 		Uiso   ? 		C 		0.605358
C 1.0  		0.8424687639065154 		0.6258586849852797  0.7191146358110962 		Uiso   ? 		C 		0.605358
C 1.0  		0.045624544617002744 		0.32286555446516196  0.6854746969155263 		Uiso   ? 		C 		-0.133905
C 1.0  		0.012735245590891453 		0.8108439646712464  0.6905125621607565 		Uiso   ? 		C 		-0.133905
C 1.0  		0.5473224939494274 		0.31648675171737  0.688399908993402 		Uiso   ? 		C 		-0.133905
C 1.0  		0.5133090458925963 		0.8162414131501473  0.6887249325576105 		Uiso   ? 		C 		-0.133905
C 1.0  		0.17031773794713 		0.996810598626104  0.4985861474956934 		Uiso   ? 		C 		-0.242969
C 1.0  		0.1508556028739123 		0.46957801766437685  0.4985861474956934 		Uiso   ? 		C 		-0.242969
C 1.0  		0.6670076473063636 		0.9965652600588815  0.5000487535346312 		Uiso   ? 		C 		-0.242969
C 1.0  		0.6629282487393161 		0.4737487733071639  0.4989111710599018 		Uiso   ? 		C 		-0.242969
C 1.0  		0.178948909312105 		0.9987733071638862  0.7225273832352844 		Uiso   ? 		C 		-0.245401
C 1.0  		0.1745826105942051 		0.4732580961727184  0.7197646829395131 		Uiso   ? 		C 		-0.245401
C 1.0  		0.681915121405576 		0.9970559371933269  0.7187896122468879 		Uiso   ? 		C 		-0.245401
C 1.0  		0.6722934338932987 		0.4708047105004907  0.7196021711574089 		Uiso   ? 		C 		-0.245401
C 1.0  		0.018305312116951696 		0.14965652600588814  0.5003737770988397 		Uiso   ? 		C 		-0.242968
C 1.0  		0.9867828137466335 		0.6437684003925418  0.5008613124451522 		Uiso   ? 		C 		-0.242968
C 1.0  		0.5176021361242219 		0.14867517173699707  0.4995612181883186 		Uiso   ? 		C 		-0.242968
C 1.0  		0.4823532712712602 		0.6442590775269873  0.5002112653167354 		Uiso   ? 		C 		-0.242968
C 1.0  		0.018662601393748222 		0.1422963689892051  0.7186271004647836 		Uiso   ? 		C 		-0.245372
C 1.0  		0.9818076197383581 		0.6503925417075564  0.7204147300679299 		Uiso   ? 		C 		-0.245372
C 1.0  		0.5132275638766537 		0.14205103042198233  0.718139565118471 		Uiso   ? 		C 		-0.245372
C 1.0  		0.4871662436235952 		0.6415603532875369  0.7196021711574089 		Uiso   ? 		C 		-0.245372
C 1.0  		0.35344823616897303 		0.3248282630029441  0.4984236357135892 		Uiso   ? 		C 		-0.242967
C 1.0  		0.3212969672691448 		0.8206575073601572  0.4980986121493808 		Uiso   ? 		C 		-0.242967
C 1.0  		0.8520244571167368 		0.3194308145240432  0.49972372997042286 		Uiso   ? 		C 		-0.242967
C 1.0  		0.821853340504073 		0.8226202158979393  0.49907368284200604 		Uiso   ? 		C 		-0.242967
C 1.0  		0.3592928441631941 		0.32801766437684005  0.7170019826437416 		Uiso   ? 		C 		-0.245410
C 1.0  		0.32850837591915916 		0.8299803729146222  0.718139565118471 		Uiso   ? 		C 		-0.245410
C 1.0  		0.8592184386999745 		0.32531894013738966  0.7200897065037215 		Uiso   ? 		C 		-0.245410
C 1.0  		0.8253605069343333 		0.8258096172718352  0.7194396593753046 		Uiso   ? 		C 		-0.245410
C 1.0  		0.18461856577972185 		0.9914131501472033  0.5189001202587187 		Uiso   ? 		C 		0.115488
C 1.0  		0.17155942010429118 		0.4757114818449461  0.5190626320408229 		Uiso   ? 		C 		0.115488
C 1.0  		0.682027070029824 		0.9892051030421983  0.5197126791692397 		Uiso   ? 		C 		0.115488
C 1.0  		0.6835093956434208 		0.47963689892051037  0.5187376084766145 		Uiso   ? 		C 		0.115488
C 1.0  		0.017838082384544846 		0.17124631992149167  0.5197126791692397 		Uiso   ? 		C 		0.115491
C 1.0  		0.9841732100711218 		0.6619234543670266  0.5205252380797607 		Uiso   ? 		C 		0.115491
C 1.0  		0.5180572824369282 		0.1665848871442591  0.5202002145155523 		Uiso   ? 		C 		0.115491
C 1.0  		0.48153344945816956 		0.6621687929342492  0.520687749861865 		Uiso   ? 		C 		0.115491
C 1.0  		0.33477552511628805 		0.3061825318940138  0.5180875613481978 		Uiso   ? 		C 		0.115490
C 1.0  		0.304398619180742 		0.8047105004906772  0.5193876556050313 		Uiso   ? 		C 		0.115490
C 1.0  		0.833310186565748 		0.298577036310108  0.5185750966945103 		Uiso   ? 		C 		0.115490
C 1.0  		0.8055924764785686 		0.8066732090284593  0.5200377027334482 		Uiso   ? 		C 		0.115490
C 1.0  		0.18647403957197406 		0.9921491658488715  0.4787597100789807 		Uiso   ? 		C 		0.115424
C 1.0  		0.1746415971592858 		0.47890088321884206  0.4795722689895017 		Uiso   ? 		C 		0.115424
C 1.0  		0.6816677725843896 		0.9901864573110893  0.4795722689895017 		Uiso   ? 		C 		0.115424
C 1.0  		0.6837634498293577 		0.48184494602551525  0.4787597100789807 		Uiso   ? 		C 		0.115424
C 1.0  		0.1896296388591266 		0.19013738959764478  0.46819644424220747 		Uiso   ? 		C 		-0.135229
C 1.0  		0.1595155006429057 		0.6925907752698724  0.46965905028114535 		Uiso   ? 		C 		-0.135229
C 1.0  		0.6876340676738232 		0.18572129538763496  0.4693340267169369 		Uiso   ? 		C 		-0.135229
C 1.0  		0.6558112584231516 		0.6864573110893033  0.47079663275587474 		Uiso   ? 		C 		-0.135229
C 1.0  		0.1926122530817983 		0.9933758586849855  0.7014008515617381 		Uiso   ? 		C 		0.120037
C 1.0  		0.19815611019194576 		0.48258096172718357  0.7002632690870088 		Uiso   ? 		C 		0.120037
C 1.0  		0.6963453249291924 		0.9872423945044162  0.6997757337406961 		Uiso   ? 		C 		0.120037
C 1.0  		0.6943794706776097 		0.4801275760549559  0.6996132219585919 		Uiso   ? 		C 		0.120037
C 1.0  		0.01743521727216875 		0.1636408243375859  0.4782721747326681 		Uiso   ? 		C 		0.115428
C 1.0  		0.9856935188494673 		0.6624141315014721  0.4807098514642312 		Uiso   ? 		C 		0.115428
C 1.0  		0.5165128412270557 		0.1673209028459274  0.4790847336431891 		Uiso   ? 		C 		0.115428
C 1.0  		0.4827842851524392 		0.6633954857703632  0.4798972925537101 		Uiso   ? 		C 		0.115428
C 1.0  		0.01948575868527718 		0.16094210009813545  0.6979881041375499 		Uiso   ? 		C 		0.120065
C 1.0  		0.983734809966355 		0.6712463199214918  0.701238339779634 		Uiso   ? 		C 		0.120065
C 1.0  		0.5146399403680265 		0.16315014720314036  0.6983131277017582 		Uiso   ? 		C 		0.120065
C 1.0  		0.4853670673689485 		0.6638861629048087  0.702050898690155 		Uiso   ? 		C 		0.120065
C 1.0  		0.3186540776249974 		0.3177134445534838  0.5304384567881171 		Uiso   ? 		C 		-0.130605
C 1.0  		0.28255523402150445 		0.8132973503434741  0.528813338967075 		Uiso   ? 		C 		-0.130605
C 1.0  		0.8118589448168603 		0.3066732090284593  0.528000780056554 		Uiso   ? 		C 		-0.130605
C 1.0  		0.7832496964808457 		0.8125613346418057  0.5294633860954919 		Uiso   ? 		C 		-0.130605
C 1.0  		0.33516766852663804 		0.3056918547595682  0.4784346865147723 		Uiso   ? 		C 		0.115427
C 1.0  		0.3004007714453849 		0.8005397448478901  0.4787597100789807 		Uiso   ? 		C 		0.115427
C 1.0  		0.8344886249654356 		0.30348380765456334  0.4789222218610849 		Uiso   ? 		C 		0.115427
C 1.0  		0.8026899481462911 		0.8029931305201179  0.4795722689895017 		Uiso   ? 		C 		0.115427
C 1.0  		0.3380286373606115 		0.30716388616290485  0.6981506159196542 		Uiso   ? 		C 		0.120080
C 1.0  		0.3051762006366914 		0.8083905789990187  0.7001007573049045 		Uiso   ? 		C 		0.120080
C 1.0  		0.8434811019444826 		0.3108439646712463  0.6976630805733416 		Uiso   ? 		C 		0.120080
C 1.0  		0.809279291631546 		0.8093719332679098  0.6983131277017582 		Uiso   ? 		C 		0.120080
C 1.0  		0.20255593573359854 		0.9847890088321886  0.34224981311145053 		Uiso   ? 		C 		-0.087092
C 1.0  		0.2150021770800184 		0.4882237487733072  0.3438749309324926 		Uiso   ? 		C 		-0.087092
C 1.0  		0.7031431467648046 		0.9808635917566243  0.3432248838040758 		Uiso   ? 		C 		-0.087092
C 1.0  		0.706517808472845 		0.485279685966634  0.34338739558618 		Uiso   ? 		C 		-0.087092
C 1.0  		0.20298963864225245 		0.9865063788027478  0.5601781129131862 		Uiso   ? 		C 		-0.089433
C 1.0  		0.2064936760413177 		0.4865063788027479  0.5577404361816232 		Uiso   ? 		C 		-0.089433
C 1.0  		0.7011978486111936 		0.9803729146221787  0.5606656482594988 		Uiso   ? 		C 		-0.089433
C 1.0  		0.7125092192248675 		0.48748773307163895  0.5595280657847693 		Uiso   ? 		C 		-0.089433
C 1.0  		0.18414432831033978 		0.1859666339548577  0.6890499561218189 		Uiso   ? 		C 		-0.133900
C 1.0  		0.15203461890881562 		0.6840039254170756  0.6890499561218189 		Uiso   ? 		C 		-0.133900
C 1.0  		0.6810031646902643 		0.1771344455348381  0.685962232261839 		Uiso   ? 		C 		-0.133900
C 1.0  		0.6494344096255296 		0.6800785083415113  0.6877498618649852 		Uiso   ? 		C 		-0.133900
C 1.0  		0.01088004706163008 		0.18792934249263987  0.3394871128156791 		Uiso   ? 		C 		-0.087089
C 1.0  		0.9842006779810875 		0.6972522080471051  0.3388370656872623 		Uiso   ? 		C 		-0.087089
C 1.0  		0.5155066653264972 		0.19038272816486754  0.33997464816199174 		Uiso   ? 		C 		-0.087089
C 1.0  		0.4817693957184925 		0.6847399411187439  0.34224981311145053 		Uiso   ? 		C 		-0.087089
C 1.0  		0.017191203929420848 		0.19332679097154076  0.5613156953879156 		Uiso   ? 		C 		-0.089429
C 1.0  		0.9840431535212599 		0.6901373895976448  0.5601781129131862 		Uiso   ? 		C 		-0.089429
C 1.0  		0.5173205796204456 		0.18891069676153094  0.5614782071700198 		Uiso   ? 		C 		-0.089429
C 1.0  		0.4830684962758166 		0.68351324828263  0.5629408132089576 		Uiso   ? 		C 		-0.089429
C 1.0  		0.3175245849472015 		0.28655544651619236  0.34208730132934634 		Uiso   ? 		C 		-0.087089
C 1.0  		0.28239839042051407 		0.7823846908734053  0.3409497188546169 		Uiso   ? 		C 		-0.087089
C 1.0  		0.8173932010875389 		0.2845927379784102  0.34436246627880523 		Uiso   ? 		C 		-0.087089
C 1.0  		0.77267860501721 		0.7752698724239452  0.3409497188546169 		Uiso   ? 		C 		-0.087089
C 1.0  		0.3093579542871584 		0.2804219823356232  0.560015601131082 		Uiso   ? 		C 		-0.089428
C 1.0  		0.2754014846267702 		0.7794406280667322  0.5598530893489777 		Uiso   ? 		C 		-0.089428
C 1.0  		0.8098312085254786 		0.2779685966633955  0.5613156953879156 		Uiso   ? 		C 		-0.089428
C 1.0  		0.7875331170572548 		0.7892541707556429  0.5629408132089576 		Uiso   ? 		C 		-0.089428
C 1.0  		0.21069642579347653 		0.9857703631010796  0.4389443234634511 		Uiso   ? 		C 		-0.089305
C 1.0  		0.21014764522937943 		0.48871442590775277  0.44089446484870154 		Uiso   ? 		C 		-0.089305
C 1.0  		0.7047532799045084 		0.981108930323847  0.4399193941560763 		Uiso   ? 		C 		-0.089305
C 1.0  		0.7006906275454005 		0.48552502453385676  0.4352065524750544 		Uiso   ? 		C 		-0.089305
C 1.0  		0.2112440854950164 		0.9860157016683023  0.6597978353430622 		Uiso   ? 		C 		-0.085732
C 1.0  		0.22035610376914266 		0.49043179587831215  0.6584977410862286 		Uiso   ? 		C 		-0.085732
C 1.0  		0.7071718322964395 		0.9791462217860649  0.6560600643546657 		Uiso   ? 		C 		-0.085732
C 1.0  		0.7112255375656824 		0.4857703631010795  0.6562225761367699 		Uiso   ? 		C 		-0.085732
C 1.0  		0.015440973396666016 		0.18940137389597647  0.4379692527708258 		Uiso   ? 		C 		-0.089302
C 1.0  		0.984851572773487 		0.6879293424926398  0.4404069295023889 		Uiso   ? 		C 		-0.089302
C 1.0  		0.5151299408142862 		0.18792934249263987  0.4379692527708258 		Uiso   ? 		C 		-0.089302
C 1.0  		0.4810769414277889 		0.6918547595682042  0.4402444177202847 		Uiso   ? 		C 		-0.089302
C 1.0  		0.01727902012214165 		0.18670264965652603  0.6570351350472909 		Uiso   ? 		C 		-0.085722
C 1.0  		0.9815434903013586 		0.6940628066732092  0.6584977410862286 		Uiso   ? 		C 		-0.085722
C 1.0  		0.515749997810408 		0.18449460255152111  0.6567101114830826 		Uiso   ? 		C 		-0.085722
C 1.0  		0.48266964750071606 		0.6886653581943082  0.6601228589072707 		Uiso   ? 		C 		-0.085722
C 1.0  		0.31459792418339677 		0.28410206084396467  0.43553157603926285 		Uiso   ? 		C 		-0.089299
C 1.0  		0.2778200370187014 		0.7774779195289501  0.43748171742451325 		Uiso   ? 		C 		-0.089299
C 1.0  		0.8084335700734074 		0.2777232580961727  0.43780674098872163 		Uiso   ? 		C 		-0.089299
C 1.0  		0.7768145419769803 		0.7767419038272817  0.43926934702765946 		Uiso   ? 		C 		-0.089299
C 1.0  		0.30648827191979655 		0.2772325809617272  0.6597978353430622 		Uiso   ? 		C 		-0.085699
C 1.0  		0.2759819902932258 		0.7801766437684005  0.6604478824714791 		Uiso   ? 		C 		-0.085699
C 1.0  		0.8130601883382746 		0.2801766437684004  0.6593102999967497 		Uiso   ? 		C 		-0.085699
C 1.0  		0.7835024233569821 		0.7845927379784102  0.657197646829395 		Uiso   ? 		C 		-0.085699
C 1.0  		0.31628014494681767 		0.9806182531894014  0.5193876556050313 		Uiso   ? 		C 		0.118175
C 1.0  		0.3238738626112363 		0.4909224730127576  0.5187376084766145 		Uiso   ? 		C 		0.118175
C 1.0  		0.8138924303511643 		0.9766928361138372  0.5202002145155523 		Uiso   ? 		C 		0.118175
C 1.0  		0.8278629968132051 		0.49337585868498535  0.5200377027334482 		Uiso   ? 		C 		0.118175
C 1.0  		0.21809126594700684 		0.02011776251226693  0.6908375857249651 		Uiso   ? 		C 		-0.129019
C 1.0  		0.20704936841740867 		0.5122669283611384  0.6893749796860272 		Uiso   ? 		C 		-0.129019
C 1.0  		0.7252879365577194 		0.008586849852796861  0.6893749796860272 		Uiso   ? 		C 		-0.129019
C 1.0  		0.7045476970288694 		0.5098135426889107  0.6890499561218189 		Uiso   ? 		C 		-0.129019
C 1.0  		0.34645670843017917 		0.28704612365063786  0.46770890889589495 		Uiso   ? 		C 		-0.130699
C 1.0  		0.30809282055730725 		0.7789499509322866  0.46852146780641596 		Uiso   ? 		C 		-0.130699
C 1.0  		0.8418126630985352 		0.28115799803729147  0.46852146780641596 		Uiso   ? 		C 		-0.130699
C 1.0  		0.8119679979663901 		0.7828753680078508  0.4688464913706243 		Uiso   ? 		C 		-0.130699
C 1.0  		0.013702757467864035 		0.3015210991167812  0.5195501673871356 		Uiso   ? 		C 		0.118176
C 1.0  		0.982175561901433 		0.8066732090284593  0.5208502616439692 		Uiso   ? 		C 		0.118176
C 1.0  		0.5171462401369307 		0.31010794896957805  0.5193876556050313 		Uiso   ? 		C 		0.118176
C 1.0  		0.48168287242769836 		0.7993130520117764  0.5184125849124062 		Uiso   ? 		C 		0.118176
C 1.0  		0.1970522148869732 		0.1692836113837095  0.5187376084766145 		Uiso   ? 		C 		0.118178
C 1.0  		0.1603400196521091 		0.663640824337586  0.522312867682907 		Uiso   ? 		C 		0.118178
C 1.0  		0.6900687198227307 		0.15701668302257116  0.5205252380797607 		Uiso   ? 		C 		0.118178
C 1.0  		0.6616632526409605 		0.6611874386653582  0.5208502616439692 		Uiso   ? 		C 		0.118178
C 1.0  		0.3157807501083324 		0.977919528949951  0.4797347807716059 		Uiso   ? 		C 		0.118094
C 1.0  		0.3247566873266832 		0.4914131501472032  0.47778463938635546 		Uiso   ? 		C 		0.118094
C 1.0  		0.8136142437337002 		0.975711481844946  0.4798972925537101 		Uiso   ? 		C 		0.118094
C 1.0  		0.8204739476091113 		0.4909224730127576  0.48022231611791855 		Uiso   ? 		C 		0.118094
C 1.0  		0.3316251047354826 		0.008341511285574093  0.4693340267169369 		Uiso   ? 		C 		-0.135227
C 1.0  		0.32096394805537104 		0.5157016683022572  0.47047160919166636 		Uiso   ? 		C 		-0.135227
C 1.0  		0.8319428426826129 		0.005152109911678117  0.4701465856274579 		Uiso   ? 		C 		-0.135227
C 1.0  		0.8160437242749008 		0.5152109911678117  0.4712841681021874 		Uiso   ? 		C 		-0.135227
C 1.0  		0.30849224696762334 		0.9833169774288519  0.7001007573049045 		Uiso   ? 		C 		0.120803
C 1.0  		0.31040558646239913 		0.4928851815505398  0.7002632690870088 		Uiso   ? 		C 		0.120803
C 1.0  		0.803015649952225 		0.9808635917566243  0.7004257808691129 		Uiso   ? 		C 		0.120803
C 1.0  		0.8192231119148418 		0.48969578017664384  0.6988006630480709 		Uiso   ? 		C 		0.120803
C 1.0  		0.21995344510400977 		0.016192345436702654  0.5501023824227256 		Uiso   ? 		C 		-0.032619
C 1.0  		0.1960063500252531 		0.5076054955839058  0.551239964897455 		Uiso   ? 		C 		-0.032619
C 1.0  		0.7203764263106375 		0.009813542688910697  0.5492898235122046 		Uiso   ? 		C 		-0.032619
C 1.0  		0.7109728106895461 		0.513738959764475  0.5501023824227256 		Uiso   ? 		C 		-0.032619
C 1.0  		0.012322546082569635 		0.30471050049067716  0.4781096629505639 		Uiso   ? 		C 		0.118094
C 1.0  		0.9833104326341789 		0.8029931305201179  0.4805473396821269 		Uiso   ? 		C 		0.118094
C 1.0  		0.517856121494411 		0.30642787046123654  0.4789222218610849 		Uiso   ? 		C 		0.118094
C 1.0  		0.48172644009464016 		0.8078999018645732  0.4782721747326681 		Uiso   ? 		C 		0.118094
C 1.0  		0.01755581061405745 		0.31305201177625125  0.6970130334449247 		Uiso   ? 		C 		0.120855
C 1.0  		0.9828525972939977 		0.8025024533856723  0.7004257808691129 		Uiso   ? 		C 		0.120855
C 1.0  		0.5180619108172932 		0.3110893032384691  0.6981506159196542 		Uiso   ? 		C 		0.120855
C 1.0  		0.48466851975658387 		0.8074092247301277  0.6999382455228004 		Uiso   ? 		C 		0.120855
C 1.0  		0.1948857085123411 		0.16707556427870465  0.47794715116845965 		Uiso   ? 		C 		0.118096
C 1.0  		0.1673302200811023 		0.6712463199214918  0.48038482790002274 		Uiso   ? 		C 		0.118096
C 1.0  		0.6969778094237535 		0.1665848871442591  0.4805473396821269 		Uiso   ? 		C 		0.118096
C 1.0  		0.6621626474794458 		0.6638861629048087  0.4807098514642312 		Uiso   ? 		C 		0.118096
C 1.0  		0.19103466353478546 		0.16192345436702651  0.6976630805733416 		Uiso   ? 		C 		0.120870
C 1.0  		0.15963684365937938 		0.6626594700686949  0.6996132219585919 		Uiso   ? 		C 		0.120870
C 1.0  		0.6891289167108408 		0.15726202158979394  0.6978255923554456 		Uiso   ? 		C 		0.120870
C 1.0  		0.6546817657453556 		0.6552993130520118  0.6965254980986121 		Uiso   ? 		C 		0.120870
C 1.0  		0.330629237642464 		0.9727674190382729  0.49972372997042286 		Uiso   ? 		C 		-0.243153
C 1.0  		0.344356471620594 		0.4953385672227675  0.49907368284200604 		Uiso   ? 		C 		-0.243153
C 1.0  		0.8265000060474441 		0.9666339548577038  0.5003737770988397 		Uiso   ? 		C 		-0.243153
C 1.0  		0.8450529422485731 		0.5009813542688911  0.4984236357135892 		Uiso   ? 		C 		-0.243153
C 1.0  		0.3272458352918017 		0.012757605495583907  0.6880748854291936 		Uiso   ? 		C 		-0.133928
C 1.0  		0.30451203274628624 		0.51594700686948  0.6901875385965481 		Uiso   ? 		C 		-0.133928
C 1.0  		0.8247595828014014 		0.007360157016683023  0.6877498618649852 		Uiso   ? 		C 		-0.133928
C 1.0  		0.8199671665470382 		0.5166830225711482  0.6887249325576105 		Uiso   ? 		C 		-0.133928
C 1.0  		0.3250232649360407 		0.974730127576055  0.7179770533363669 		Uiso   ? 		C 		-0.244043
C 1.0  		0.3314291498085461 		0.502208047105005  0.7207397536321383 		Uiso   ? 		C 		-0.244043
C 1.0  		0.8171106884619344 		0.9708047105004908  0.7191146358110962 		Uiso   ? 		C 		-0.244043
C 1.0  		0.8371886306375214 		0.49460255152109917  0.7192771475932005 		Uiso   ? 		C 		-0.244043
C 1.0  		0.010880659104719553 		0.31967615309126596  0.49972372997042286 		Uiso   ? 		C 		-0.243149
C 1.0  		0.9816164996390297 		0.8221295387634937  0.49988624175252705 		Uiso   ? 		C 		-0.243149
C 1.0  		0.5175926729162486 		0.3263002944062807  0.4979361003672766 		Uiso   ? 		C 		-0.243149
C 1.0  		0.4803985099096759 		0.8213935230618253  0.5010238242272564 		Uiso   ? 		C 		-0.243149
C 1.0  		0.01914582765950959 		0.3272816486751718  0.7196021711574089 		Uiso   ? 		C 		-0.244070
C 1.0  		0.9815990725722532 		0.818694798822375  0.7213898007605551 		Uiso   ? 		C 		-0.244070
C 1.0  		0.5190405844000121 		0.33047105004906774  0.7176520297721585 		Uiso   ? 		C 		-0.244070
C 1.0  		0.48430653328367457 		0.8258096172718352  0.7204147300679299 		Uiso   ? 		C 		-0.244070
C 1.0  		0.17701471134713284 		0.15088321884200198  0.4984236357135892 		Uiso   ? 		C 		-0.243149
C 1.0  		0.14533870485426267 		0.6506378802747793  0.49972372997042286 		Uiso   ? 		C 		-0.243149
C 1.0  		0.675124383421327 		0.14327772325809618  0.4985861474956934 		Uiso   ? 		C 		-0.243149
C 1.0  		0.643571047254731 		0.6432777232580962  0.5003737770988397 		Uiso   ? 		C 		-0.243149
C 1.0  		0.17323606366415906 		0.14205103042198233  0.7176520297721585 		Uiso   ? 		C 		-0.244107
C 1.0  		0.1394679562598764 		0.6422963689892052  0.7196021711574089 		Uiso   ? 		C 		-0.244107
C 1.0  		0.6718384252120879 		0.14180569185475958  0.7184645886826795 		Uiso   ? 		C 		-0.244107
C 1.0  		0.639082518214277 		0.6381256133464182  0.7186271004647836 		Uiso   ? 		C 		-0.244107
C 1.0  		0.29302169426873237 		0.9855250245338569  0.34273734845776316 		Uiso   ? 		C 		-0.086780
C 1.0  		0.29408103867570123 		0.48233562315996076  0.3438749309324926 		Uiso   ? 		C 		-0.086780
C 1.0  		0.7907653635327416 		0.9835623159960748  0.34289986023986735 		Uiso   ? 		C 		-0.086780
C 1.0  		0.7927162461885457 		0.48258096172718357  0.34436246627880523 		Uiso   ? 		C 		-0.086780
C 1.0  		0.2992584456733034 		0.9882237487733071  0.560828160041603 		Uiso   ? 		C 		-0.087302
C 1.0  		0.29255402453260543 		0.4865063788027479  0.5596905775668736 		Uiso   ? 		C 		-0.087302
C 1.0  		0.7956131900186298 		0.9877330716388617  0.560015601131082 		Uiso   ? 		C 		-0.087302
C 1.0  		0.8015029338447106 		0.485279685966634  0.5611531836058113 		Uiso   ? 		C 		-0.087302
C 1.0  		0.015184195775380327 		0.28238469087340534  0.3412747424188254 		Uiso   ? 		C 		-0.086780
C 1.0  		0.9840645625174382 		0.7841020608439648  0.3424123248935548 		Uiso   ? 		C 		-0.086780
C 1.0  		0.5177891022547791 		0.2752698724239451  0.3393246010335749 		Uiso   ? 		C 		-0.086780
C 1.0  		0.4823404725848486 		0.7853287536800786  0.3424123248935548 		Uiso   ? 		C 		-0.086780
C 1.0  		0.016025460992523166 		0.2806673209028459  0.5618032307342282 		Uiso   ? 		C 		-0.087303
C 1.0  		0.9835825947457296 		0.784838076545633  0.562453277862645 		Uiso   ? 		C 		-0.087303
C 1.0  		0.5178085374901936 		0.28508341511285573  0.5614782071700198 		Uiso   ? 		C 		-0.087303
C 1.0  		0.48068677177820285 		0.776496565260059  0.560015601131082 		Uiso   ? 		C 		-0.087303
C 1.0  		0.2213657527796348 		0.19283611383709523  0.3402996717262001 		Uiso   ? 		C 		-0.086778
C 1.0  		0.18785840492603956 		0.6906280667320903  0.3414372542009295 		Uiso   ? 		C 		-0.086778
C 1.0  		0.7157074988728814 		0.18449460255152111  0.3424123248935548 		Uiso   ? 		C 		-0.086778
C 1.0  		0.6914708146157973 		0.6906280667320903  0.33916208925147073 		Uiso   ? 		C 		-0.086778
C 1.0  		0.22300873188425435 		0.19357212953876352  0.5592030422205609 		Uiso   ? 		C 		-0.087302
C 1.0  		0.18696686667720433 		0.6884200196270854  0.5627783014268534 		Uiso   ? 		C 		-0.087302
C 1.0  		0.708439111826424 		0.17590775269872425  0.5634283485552702 		Uiso   ? 		C 		-0.087302
C 1.0  		0.6863448015124448 		0.6854759568204123  0.5619657425163325 		Uiso   ? 		C 		-0.087302
C 1.0  		0.2980558748420884 		0.9845436702649657  0.43861929989924264 		Uiso   ? 		C 		-0.087232
C 1.0  		0.2931171031322841 		0.4838076545632974  0.4389443234634511 		Uiso   ? 		C 		-0.087232
C 1.0  		0.7945332895136892 		0.9842983316977428  0.4402444177202847 		Uiso   ? 		C 		-0.087232
C 1.0  		0.7945388740158825 		0.4828263002944063  0.43813176455293007 		Uiso   ? 		C 		-0.087232
C 1.0  		0.21413759792168097 		0.15628066732090287  0.4665713264211655 		Uiso   ? 		C 		-0.135226
C 1.0  		0.1854867900873624 		0.6599607458292444  0.4694965384990411 		Uiso   ? 		C 		-0.135226
C 1.0  		0.7166305557768318 		0.15701668302257116  0.4701465856274579 		Uiso   ? 		C 		-0.135226
C 1.0  		0.6836138892283334 		0.6557899901864573  0.47047160919166636 		Uiso   ? 		C 		-0.135226
C 1.0  		0.2977294233615697 		0.9860157016683023  0.6562225761367699 		Uiso   ? 		C 		-0.086108
C 1.0  		0.29136016723477876 		0.4845436702649657  0.6568726232651867 		Uiso   ? 		C 		-0.086108
C 1.0  		0.7900226362103456 		0.9867517173699707  0.6570351350472909 		Uiso   ? 		C 		-0.086108
C 1.0  		0.7918005755081833 		0.4815996074582925  0.6586602528683329 		Uiso   ? 		C 		-0.086108
C 1.0  		0.015427528259290987 		0.2764965652600589  0.43926934702765946 		Uiso   ? 		C 		-0.087232
C 1.0  		0.9835980136438687 		0.7818940137389598  0.43780674098872163 		Uiso   ? 		C 		-0.087232
C 1.0  		0.516630099090506 		0.2801766437684004  0.43829427633503426 		Uiso   ? 		C 		-0.087232
C 1.0  		0.4826079375002865 		0.7782139352306183  0.4402444177202847 		Uiso   ? 		C 		-0.087232
C 1.0  		0.015234468807072687 		0.2863101079489696  0.6554100172262489 		Uiso   ? 		C 		-0.086065
C 1.0  		0.9831663189038524 		0.7865554465161924  0.657197646829395 		Uiso   ? 		C 		-0.086065
C 1.0  		0.5182181079673203 		0.288027477919529  0.6558975525725614 		Uiso   ? 		C 		-0.086065
C 1.0  		0.4839070380576106 		0.7769872423945045  0.6596353235609581 		Uiso   ? 		C 		-0.086065
C 1.0  		0.22081809307809497 		0.19259077526987245  0.4368316702960965 		Uiso   ? 		C 		-0.087231
C 1.0  		0.18907639465539347 		0.6913640824337587  0.4369941820782006 		Uiso   ? 		C 		-0.087231
C 1.0  		0.7211686769901409 		0.189892051030422  0.4387818116813469 		Uiso   ? 		C 		-0.087231
C 1.0  		0.69066239536357 		0.6928361138370952  0.44073195306659735 		Uiso   ? 		C 		-0.087231
C 1.0  		0.2224369397511872 		0.19455348380765458  0.6596353235609581 		Uiso   ? 		C 		-0.086052
C 1.0  		0.18749039394721684 		0.6898920510304221  0.6599603471251665 		Uiso   ? 		C 		-0.086052
C 1.0  		0.7144392361118351 		0.17983316977428854  0.6563850879188741 		Uiso   ? 		C 		-0.086052
C 1.0  		0.6873590100875542 		0.6879293424926398  0.6596353235609581 		Uiso   ? 		C 		-0.086052
C 1.0  		0.17814743627974547 		0.45191364082433766  0.527188221146033 		Uiso   ? 		C 		-0.130609
C 1.0  		0.16628571693705657 		0.9619725220804711  0.5301134332239087 		Uiso   ? 		C 		-0.130609
C 1.0  		0.6925005453126674 		0.456820412168793  0.5260506386713036 		Uiso   ? 		C 		-0.130609
C 1.0  		0.6625419233876363 		0.960009813542689  0.5309259921344297 		Uiso   ? 		C 		-0.130609
C 1.0  		0.2127312459362215 		0.1543179587831207  0.6882373972112978 		Uiso   ? 		C 		-0.133907
C 1.0  		0.1827069320813592 		0.6565260058881257  0.6903500503786525 		Uiso   ? 		C 		-0.133907
C 1.0  		0.7098112905371673 		0.14720314033366047  0.6880748854291936 		Uiso   ? 		C 		-0.133907
C 1.0  		0.6794276792368708 		0.6503925417075564  0.6882373972112978 		Uiso   ? 		C 		-0.133907
C 1.0  		0.48831272336444764 		0.15554465161923456  0.5306009685702213 		Uiso   ? 		C 		-0.130609
C 1.0  		0.4514450118383937 		0.6491658488714426  0.531901062827055 		Uiso   ? 		C 		-0.130609
C 1.0  		0.9891385696834515 		0.1567713444553484  0.5325511099554717 		Uiso   ? 		C 		-0.130609
C 1.0  		0.9554998379701938 		0.6526005888125614  0.5310885039165338 		Uiso   ? 		C 		-0.130609
C 1.0  		0.33230537238286406 		0.27404317958783125  0.5504274059869341 		Uiso   ? 		C 		-0.032621
C 1.0  		0.29211885668265525 		0.7657016683022572  0.5484772646016836 		Uiso   ? 		C 		-0.032621
C 1.0  		0.8306362526780794 		0.2681550539744848  0.5505899177690382 		Uiso   ? 		C 		-0.032621
C 1.0  		0.8055341707723251 		0.7772325809617273  0.5522150355900802 		Uiso   ? 		C 		-0.032621
C 1.0  		0.1811069430084659 		0.45485770363101086  0.470959144537979 		Uiso   ? 		C 		-0.130703
C 1.0  		0.1731425253377495 		0.9612365063788029  0.4694965384990411 		Uiso   ? 		C 		-0.130703
C 1.0  		0.6903514660048119 		0.4580471050049068  0.46998407384535373 		Uiso   ? 		C 		-0.130703
C 1.0  		0.6645441999376901 		0.9597644749754662  0.4693340267169369 		Uiso   ? 		C 		-0.130703
C 1.0  		0.19975821065709853 		0.45731108930323855  0.6897000032502355 		Uiso   ? 		C 		-0.129033
C 1.0  		0.1755785047964573 		0.9627085377821394  0.6913251210712775 		Uiso   ? 		C 		-0.129033
C 1.0  		0.6975347258860234 		0.4558390578999019  0.6892124679039229 		Uiso   ? 		C 		-0.129033
C 1.0  		0.6756750345225665 		0.9578017664376841  0.6893749796860272 		Uiso   ? 		C 		-0.129033
C 1.0  		0.48795342591901336 		0.15652600588812562  0.46835895602431177 		Uiso   ? 		C 		-0.130703
C 1.0  		0.45256647184163845 		0.6548086359175663  0.47030909740956217 		Uiso   ? 		C 		-0.130703
C 1.0  		0.987274382357811 		0.1543179587831207  0.46852146780641596 		Uiso   ? 		C 		-0.130703
C 1.0  		0.9557693110542695 		0.6518645731108931  0.4693340267169369 		Uiso   ? 		C 		-0.130703
C 1.0  		0.4845776433484157 		0.1552993130520118  0.688399908993402 		Uiso   ? 		C 		-0.129011
C 1.0  		0.4549193323037384 		0.6518645731108931  0.6901875385965481 		Uiso   ? 		C 		-0.129011
C 1.0  		0.9893095048727804 		0.1545632973503435  0.6887249325576105 		Uiso   ? 		C 		-0.129011
C 1.0  		0.9543274240764195 		0.6668302257114819  0.692462703546007 		Uiso   ? 		C 		-0.129011
C 1.0  		0.19316216180709306 		0.4555937193326791  0.5476647056911625 		Uiso   ? 		C 		-0.032615
C 1.0  		0.17547996690171042 		0.9612365063788029  0.5509149413332466 		Uiso   ? 		C 		-0.032615
C 1.0  		0.7020715197895321 		0.45853778213935237  0.5481522410374752 		Uiso   ? 		C 		-0.032615
C 1.0  		0.6729280224814789 		0.9548577036310109  0.5505899177690382 		Uiso   ? 		C 		-0.032615
C 1.0  		0.48767054210543653 		0.1665848871442591  0.5518900120258718 		Uiso   ? 		C 		-0.032620
C 1.0  		0.4529036450241833 		0.6614327772325811  0.5530275945006012 		Uiso   ? 		C 		-0.032620
C 1.0  		0.989214983315309 		0.1658488714425908  0.5533526180648096 		Uiso   ? 		C 		-0.032620
C 1.0  		0.9552846542550859 		0.6700196270853779  0.5499398706406214 		Uiso   ? 		C 		-0.032620
C 1.0  		0.1953615141466408 		0.4582924435721296  0.45064517177495367 		Uiso   ? 		C 		-0.032537
C 1.0  		0.18326786488090469 		0.9585377821393524  0.4488575421718074 		Uiso   ? 		C 		-0.032537
C 1.0  		0.6954513385079993 		0.4580471050049068  0.4473949361328696 		Uiso   ? 		C 		-0.032537
C 1.0  		0.6763936294134352 		0.955839057899902  0.4496701010823284 		Uiso   ? 		C 		-0.032537
C 1.0  		0.33448607356945614 		0.009813542688910697  0.5306009685702213 		Uiso   ? 		C 		-0.135144
C 1.0  		0.32373509252798593 		0.5174190382728165  0.5286508271849709 		Uiso   ? 		C 		-0.135144
C 1.0  		0.832376545591267 		0.006869479882237488  0.5301134332239087 		Uiso   ? 		C 		-0.135144
C 1.0  		0.8185366821300515 		0.51594700686948  0.5291383625312834 		Uiso   ? 		C 		-0.135144
C 1.0  		0.20866756863953753 		0.4602551521099117  0.6680859362303766 		Uiso   ? 		C 		-0.032089
C 1.0  		0.18330071084582034 		0.9590284592737979  0.6700360776156271 		Uiso   ? 		C 		-0.032089
C 1.0  		0.7023979712700508 		0.45706575073601574  0.666785841973543 		Uiso   ? 		C 		-0.032089
C 1.0  		0.6802755121872686 		0.9551030421982336  0.666785841973543 		Uiso   ? 		C 		-0.032089
C 1.0  		0.48661678220066074 		0.16830225711481847  0.4491825657360158 		Uiso   ? 		C 		-0.032539
C 1.0  		0.4520556744422899 		0.667811579980373  0.4495075893002242 		Uiso   ? 		C 		-0.032539
C 1.0  		0.9860932549306483 		0.16683022571148187  0.4478824714791822 		Uiso   ? 		C 		-0.032539
C 1.0  		0.9560099545107053 		0.6633954857703632  0.44869503038970326 		Uiso   ? 		C 		-0.032539
C 1.0  		0.48602756300081695 		0.1658488714425908  0.6674358891019598 		Uiso   ? 		C 		-0.032098
C 1.0  		0.4535914021187741 		0.6653581943081454  0.6697110540514187 		Uiso   ? 		C 		-0.032098
C 1.0  		0.9882336207051151 		0.16388616290480865  0.6674358891019598 		Uiso   ? 		C 		-0.032098
C 1.0  		0.9540928051258971 		0.6744357212953878  0.6695485422693145 		Uiso   ? 		C 		-0.032098
C 1.0  		0.30903075313205475 		0.46123650637880276  0.5304384567881171 		Uiso   ? 		C 		-0.135142
C 1.0  		0.28689086698249594 		0.955839057899902  0.528813338967075 		Uiso   ? 		C 		-0.135142
C 1.0  		0.8196400686155563 		0.46418056918547596  0.5317385510449507 		Uiso   ? 		C 		-0.135142
C 1.0  		0.7832127653629068 		0.9548577036310109  0.5283258036207624 		Uiso   ? 		C 		-0.135142
C 1.0  		0.48757060808514124 		0.2904808635917566  0.5307634803523255 		Uiso   ? 		C 		-0.135146
C 1.0  		0.4521072403759089 		0.779685966633955  0.5291383625312834 		Uiso   ? 		C 		-0.135146
C 1.0  		0.9847887419105003 		0.2806673209028459  0.5302759450060128 		Uiso   ? 		C 		-0.135146
C 1.0  		0.9539144493051066 		0.7828753680078508  0.5306009685702213 		Uiso   ? 		C 		-0.135146
C 1.0  		0.30823775277796645 		0.4605004906771345  0.46803393246010333 		Uiso   ? 		C 		-0.135225
C 1.0  		0.28687343991571923 		0.9524043179587832  0.470959144537979 		Uiso   ? 		C 		-0.135225
C 1.0  		0.813893998516082 		0.46246319921491663  0.46705886176747813 		Uiso   ? 		C 		-0.135225
C 1.0  		0.7837101520327543 		0.9511776251226693  0.470959144537979 		Uiso   ? 		C 		-0.135225
C 1.0  		0.22574778006653856 		0.015456329735034349  0.4491825657360158 		Uiso   ? 		C 		-0.032538
C 1.0  		0.20569328946364157 		0.5142296368989205  0.4496701010823284 		Uiso   ? 		C 		-0.032538
C 1.0  		0.7234498898322439 		0.011285574092247301  0.45064517177495367 		Uiso   ? 		C 		-0.032538
C 1.0  		0.700608835858593 		0.5112855740922474  0.44544479474761917 		Uiso   ? 		C 		-0.032538
C 1.0  		0.3011443172581135 		0.46246319921491663  0.6895374914681315 		Uiso   ? 		C 		-0.133919
C 1.0  		0.27965062870484153 		0.9587831207065751  0.6906750739428608 		Uiso   ? 		C 		-0.133919
C 1.0  		0.8085400718269579 		0.4602551521099117  0.6872623265186726 		Uiso   ? 		C 		-0.133919
C 1.0  		0.7749911644750586 		0.955839057899902  0.6898625150323399 		Uiso   ? 		C 		-0.133919
C 1.0  		0.48786220543210645 		0.28213935230618253  0.46982156206324954 		Uiso   ? 		C 		-0.135229
C 1.0  		0.4526481947126982 		0.7845927379784102  0.46852146780641596 		Uiso   ? 		C 		-0.135229
C 1.0  		0.9833187061638472 		0.28410206084396467  0.4672213735495823 		Uiso   ? 		C 		-0.135229
C 1.0  		0.9549856362766591 		0.7845927379784102  0.4690090031527286 		Uiso   ? 		C 		-0.135229
C 1.0  		0.48882144377941084 		0.2917075564278705  0.6877498618649852 		Uiso   ? 		C 		-0.133907
C 1.0  		0.4544862414381738 		0.7818940137389598  0.6908375857249651 		Uiso   ? 		C 		-0.133907
C 1.0  		0.9869572564537701 		0.2892541707556428  0.6879123736470893 		Uiso   ? 		C 		-0.133907
C 1.0  		0.9538071978769713 		0.779685966633955  0.6903500503786525 		Uiso   ? 		C 		-0.133907
C 1.0  		0.29372242208910415 		0.45951913640824343  0.5502648942048298 		Uiso   ? 		C 		-0.032214
C 1.0  		0.27980614499603135 		0.9595191364082435  0.5501023824227256 		Uiso   ? 		C 		-0.032214
C 1.0  		0.8025815070398508 		0.45853778213935237  0.5514024766795592 		Uiso   ? 		C 		-0.032214
C 1.0  		0.7757030540011767 		0.9585377821393524  0.5492898235122046 		Uiso   ? 		C 		-0.032214
C 1.0  		0.3453855214586268 		0.28532875368007854  0.6887249325576105 		Uiso   ? 		C 		-0.128998
C 1.0  		0.31521440484596297 		0.7885181550539746  0.6885624207755062 		Uiso   ? 		C 		-0.128998
C 1.0  		0.8510504807301308 		0.28900883218842005  0.6870998147365683 		Uiso   ? 		C 		-0.128998
C 1.0  		0.8191706930830162 		0.7904808635917567  0.6872623265186726 		Uiso   ? 		C 		-0.128998
C 1.0  		0.22420333885666593 		0.016192345436702654  0.6690610069230019 		Uiso   ? 		C 		-0.032089
C 1.0  		0.21361257130249842 		0.5134936211972523  0.667598400884064 		Uiso   ? 		C 		-0.032089
C 1.0  		0.7291369733666374 		0.007360157016683023  0.6672733773198556 		Uiso   ? 		C 		-0.032089
C 1.0  		0.7128524169133257 		0.5132482826300295  0.6669483537556472 		Uiso   ? 		C 		-0.032089
C 1.0  		0.4893081087472321 		0.27993130520117765  0.5517275002437676 		Uiso   ? 		C 		-0.032217
C 1.0  		0.4513759156143763 		0.7671736997055937  0.5496148470764131 		Uiso   ? 		C 		-0.032217
C 1.0  		0.9861099667307139 		0.27183513248282637  0.5515649884616635 		Uiso   ? 		C 		-0.032217
C 1.0  		0.9541403547222406 		0.7735525024533858  0.5522150355900802 		Uiso   ? 		C 		-0.032217
C 1.0  		0.2941058519660658 		0.45731108930323855  0.447719959697078 		Uiso   ? 		C 		-0.032143
C 1.0  		0.2786605525612592 		0.9551030421982336  0.44999512464653685 		Uiso   ? 		C 		-0.032143
C 1.0  		0.7979636023083719 		0.45780176643768405  0.4472324243507654 		Uiso   ? 		C 		-0.032143
C 1.0  		0.77553011064321 		0.9543670264965654  0.45015763642864104 		Uiso   ? 		C 		-0.032143
C 1.0  		0.2924474539633073 		0.45951913640824343  0.6679234244482725 		Uiso   ? 		C 		-0.032369
C 1.0  		0.2752867781592995 		0.9602551521099117  0.6679234244482725 		Uiso   ? 		C 		-0.032369
C 1.0  		0.7930346649945134 		0.4555937193326791  0.6680859362303766 		Uiso   ? 		C 		-0.032369
C 1.0  		0.770480511171715 		0.9582924435721296  0.6677609126661682 		Uiso   ? 		C 		-0.032369
C 1.0  		0.4882918920034849 		0.271099116781158  0.4488575421718074 		Uiso   ? 		C 		-0.032143
C 1.0  		0.4534371787295109 		0.7725711481844947  0.44804498326128644 		Uiso   ? 		C 		-0.032143
C 1.0  		0.9853980772045956 		0.26913640824337587  0.44804498326128644 		Uiso   ? 		C 		-0.032143
C 1.0  		0.954777838785139 		0.7735525024533858  0.44820749504339064 		Uiso   ? 		C 		-0.032143
C 1.0  		0.2855203252524181 		0.31476938174681063  0.34176227776513796 		Uiso   ? 		C 		0.657900
C 1.0  		0.254571627183805 		0.8142787046123652  0.34289986023986735 		Uiso   ? 		C 		0.657900
C 1.0  		0.7864842607958352 		0.313297350343474  0.34354990736828417 		Uiso   ? 		C 		0.657900
C 1.0  		0.7555858357589145 		0.8167320902845928  0.344199954496701 		Uiso   ? 		C 		0.657900
C 1.0  		0.4888831193719665 		0.27993130520117765  0.6666233301914389 		Uiso   ? 		C 		-0.032387
C 1.0  		0.4534767300591771 		0.7684003925417077  0.6698735658335229 		Uiso   ? 		C 		-0.032387
C 1.0  		0.9865523831727562 		0.2752698724239451  0.6674358891019598 		Uiso   ? 		C 		-0.032387
C 1.0  		0.953951992466135 		0.7723258096172719  0.6684109597945851 		Uiso   ? 		C 		-0.032387
C 1.0  		0.19457590001614028 		0.4290971540726203  0.34485000162511775 		Uiso   ? 		C 		0.657898
C 1.0  		0.1601046166191279 		0.9283611383709519  0.3438749309324926 		Uiso   ? 		C 		0.657898
C 1.0  		0.6913797661682598 		0.4273797841020609  0.3437124191503884 		Uiso   ? 		C 		0.657898
C 1.0  		0.653206248720131 		0.9268891069676154  0.345825072317743 		Uiso   ? 		C 		0.657898
C 1.0  		0.1860345530125239 		0.42688910696761534  0.5595280657847693 		Uiso   ? 		C 		0.658129
C 1.0  		0.15838052668653824 		0.9295878312070659  0.562453277862645 		Uiso   ? 		C 		0.658129
C 1.0  		0.6906524577440027 		0.42762512266928365  0.5603406246952903 		Uiso   ? 		C 		0.658129
C 1.0  		0.651710072373313 		0.925171736997056  0.5631033249910617 		Uiso   ? 		C 		0.658129
C 1.0  		0.45644522558427686 		0.15088321884200198  0.34517502518932625 		Uiso   ? 		C 		0.657899
C 1.0  		0.42267711817999426 		0.6511285574092248  0.34273734845776316 		Uiso   ? 		C 		0.657899
C 1.0  		0.9521537723333167 		0.14867517173699707  0.34176227776513796 		Uiso   ? 		C 		0.657899
C 1.0  		0.9248697651547915 		0.6584887144259078  0.34289986023986735 		Uiso   ? 		C 		0.657899
C 1.0  		0.45607050924070364 		0.15480863591756625  0.5626157896447492 		Uiso   ? 		C 		0.658131
C 1.0  		0.42361021592713355 		0.6555446516192346  0.5629408132089576 		Uiso   ? 		C 		0.658131
C 1.0  		0.958064072257369 		0.1528459273797841  0.5637533721194786 		Uiso   ? 		C 		0.658131
C 1.0  		0.9255313816492171 		0.657262021589794  0.5627783014268534 		Uiso   ? 		C 		0.658131
C 1.0  		0.18882982991666608 		0.4273797841020609  0.43910683524555527 		Uiso   ? 		C 		0.658110
C 1.0  		0.16320221257226147 		0.9286064769381748  0.4366691585139922 		Uiso   ? 		C 		0.658110
C 1.0  		0.6864025639913467 		0.42762512266928365  0.4360191113855754 		Uiso   ? 		C 		0.658110
C 1.0  		0.6565974501888676 		0.925171736997056  0.437319205642409 		Uiso   ? 		C 		0.658110
C 1.0  		0.18799727823291154 		0.4308145240431796  0.6542724347515194 		Uiso   ? 		C 		0.657786
C 1.0  		0.15996652739471473 		0.9310598626104024  0.6573601586114993 		Uiso   ? 		C 		0.657786
C 1.0  		0.6923195692801496 		0.42713444553483815  0.6552475054441447 		Uiso   ? 		C 		0.657786
C 1.0  		0.6566302961537833 		0.9256624141315016  0.6550849936620404 		Uiso   ? 		C 		0.657786
C 1.0  		0.2151759389283177 		0.1575073601570167  0.5296258978775961 		Uiso   ? 		C 		-0.135142
C 1.0  		0.18151307478353257 		0.6545632973503436  0.5310885039165338 		Uiso   ? 		C 		-0.135142
C 1.0  		0.7112176425226268 		0.1491658488714426  0.5304384567881171 		Uiso   ? 		C 		-0.135142
C 1.0  		0.6825098562918653 		0.6535819430814525  0.5310885039165338 		Uiso   ? 		C 		-0.135142
C 1.0  		0.45407694622403816 		0.1567713444553484  0.43845678811713845 		Uiso   ? 		C 		0.658112
C 1.0  		0.42241635862930693 		0.6535819430814525  0.4371566938603048 		Uiso   ? 		C 		0.658112
C 1.0  		0.9559062794161253 		0.15235525024533858  0.43634413494978386 		Uiso   ? 		C 		0.658112
C 1.0  		0.9257680087683773 		0.6560353287536801  0.4379692527708258 		Uiso   ? 		C 		0.658112
C 1.0  		0.45636411475630667 		0.1528459273797841  0.6557350407904573 		Uiso   ? 		C 		0.657789
C 1.0  		0.42235066669947563 		0.6526005888125614  0.6580102057399162 		Uiso   ? 		C 		0.657789
C 1.0  		0.9556280927986612 		0.15137389597644751  0.6560600643546657 		Uiso   ? 		C 		0.657789
C 1.0  		0.9237657322183233 		0.6562806673209028  0.6570351350472909 		Uiso   ? 		C 		0.657789
C 1.0  		0.2876398596659223 		0.4273797841020609  0.3445249780609094 		Uiso   ? 		C 		0.659418
C 1.0  		0.2541083793807998 		0.9263984298331698  0.3438749309324926 		Uiso   ? 		C 		0.659418
C 1.0  		0.7880976950061035 		0.4278704612365064  0.3440374427145968 		Uiso   ? 		C 		0.659418
C 1.0  		0.7511904321503833 		0.9256624141315016  0.344199954496701 		Uiso   ? 		C 		0.659418
C 1.0  		0.28343152541157013 		0.4295878312070658  0.5629408132089576 		Uiso   ? 		C 		0.659566
C 1.0  		0.25846552456159133 		0.9295878312070659  0.5622907660805408 		Uiso   ? 		C 		0.659566
C 1.0  		0.7869936620696355 		0.4256624141315015  0.5618032307342282 		Uiso   ? 		C 		0.659566
C 1.0  		0.7539944225879138 		0.9278704612365065  0.5611531836058113 		Uiso   ? 		C 		0.659566
C 1.0  		0.4579232595976071 		0.2507360157016683  0.3432248838040758 		Uiso   ? 		C 		0.659420
C 1.0  		0.42314965715160335 		0.7502453385672228  0.3415997659830337 		Uiso   ? 		C 		0.659420
C 1.0  		0.956902345657747 		0.2529440628066732  0.3424123248935548 		Uiso   ? 		C 		0.659420
C 1.0  		0.9238548413129708 		0.7576054955839059  0.34436246627880523 		Uiso   ? 		C 		0.659420
C 1.0  		0.45854733293100436 		0.2600588812561335  0.5635908603373744 		Uiso   ? 		C 		0.659570
C 1.0  		0.42027326941949095 		0.7517173699705595  0.5618032307342282 		Uiso   ? 		C 		0.659570
C 1.0  		0.9559866749773845 		0.25196270853778213  0.5634283485552702 		Uiso   ? 		C 		0.659570
C 1.0  		0.9245231631721471 		0.7517173699705595  0.5622907660805408 		Uiso   ? 		C 		0.659570
C 1.0  		0.28326729558699193 		0.42713444553483815  0.4360191113855754 		Uiso   ? 		C 		0.659552
C 1.0  		0.25714028340410205 		0.9256624141315016  0.43845678811713845 		Uiso   ? 		C 		0.659552
C 1.0  		0.7829562630046122 		0.4256624141315015  0.4368316702960965 		Uiso   ? 		C 		0.659552
C 1.0  		0.7545005227911499 		0.9259077526987244  0.4379692527708258 		Uiso   ? 		C 		0.659552
C 1.0  		0.2852300208073796 		0.43105986261040236  0.655572529008353 		Uiso   ? 		C 		0.659437
C 1.0  		0.25473044454555926 		0.929342492639843  0.6568726232651867 		Uiso   ? 		C 		0.659437
C 1.0  		0.786945397206581 		0.4281157998037292  0.6549224818799363 		Uiso   ? 		C 		0.659437
C 1.0  		0.7521717947605772 		0.9276251226692838  0.6552475054441447 		Uiso   ? 		C 		0.659437
C 1.0  		0.45673141046841825 		0.25515210991167814  0.43650664673188805 		Uiso   ? 		C 		0.659554
C 1.0  		0.4231999301832957 		0.7541707556427871  0.4360191113855754 		Uiso   ? 		C 		0.659554
C 1.0  		0.9564203778860385 		0.25368007850834157  0.43553157603926285 		Uiso   ? 		C 		0.659554
C 1.0  		0.9239513710390799 		0.7526987242394505  0.4371566938603048 		Uiso   ? 		C 		0.659554
C 1.0  		0.4579668272645489 		0.25932286555446515  0.6558975525725614 		Uiso   ? 		C 		0.659454
C 1.0  		0.4222272811064902 		0.7539254170755644  0.6570351350472909 		Uiso   ? 		C 		0.659454
C 1.0  		0.9560108074089118 		0.2507360157016683  0.6583352293041246 		Uiso   ? 		C 		0.659454
C 1.0  		0.923616206025173 		0.7524533856722277  0.6568726232651867 		Uiso   ? 		C 		0.659454
C 1.0  		0.3377578369667352 		0.2777232580961727  0.44511977118341073 		Uiso   ? 		C 		-0.032539
C 1.0  		0.29588678266360297 		0.7664376840039255  0.44869503038970326 		Uiso   ? 		C 		-0.032539
C 1.0  		0.8291816358295654 		0.26864573110893036  0.4478824714791822 		Uiso   ? 		C 		-0.032539
C 1.0  		0.8011683120581453 		0.7723258096172719  0.447719959697078 		Uiso   ? 		C 		-0.032539
C 1.0  		0.3293371521207553 		0.2693817468105987  0.6690610069230019 		Uiso   ? 		C 		-0.032118
C 1.0  		0.2981035620699274 		0.7725711481844947  0.6697110540514187 		Uiso   ? 		C 		-0.032118
C 1.0  		0.834879441065985 		0.27281648675171744  0.6685734715766892 		Uiso   ? 		C 		-0.032118
C 1.0  		0.8039810160290641 		0.7762512266928362  0.6674358891019598 		Uiso   ? 		C 		-0.032118
C 1.0  		0.0448657863533784 		0.19725220804710503  0.4478824714791822 		Uiso   ? 		C 		-0.032537
C 1.0  		0.01367174763221679 		0.6962708537782141  0.45032014821074523 		Uiso   ? 		C 		-0.032537
C 1.0  		0.5448329403884626 		0.1967615309126595  0.4478824714791822 		Uiso   ? 		C 		-0.032537
C 1.0  		0.5108040734334927 		0.69946025515211  0.45015763642864104 		Uiso   ? 		C 		-0.032537
C 1.0  		0.04713753598750801 		0.19627085377821396  0.6662983066272303 		Uiso   ? 		C 		-0.032107
C 1.0  		0.011826995541990515 		0.703631010794897  0.6685734715766892 		Uiso   ? 		C 		-0.032107
C 1.0  		0.5450695675076228 		0.19553483807654568  0.6672733773198556 		Uiso   ? 		C 		-0.032107
C 1.0  		0.5121929983521755 		0.6979882237487735  0.6701985893977312 		Uiso   ? 		C 		-0.032107
C 1.0  		0.30327603831494 		0.30225711481844947  0.4465823772223486 		Uiso   ? 		C 		-0.032541
C 1.0  		0.26649815115024456 		0.7956329735034348  0.44820749504339064 		Uiso   ? 		C 		-0.032541
C 1.0  		0.8015016753506579 		0.2995583905789991  0.44820749504339064 		Uiso   ? 		C 		-0.032541
C 1.0  		0.7711991748783313 		0.8007850834151129  0.4483700068254948 		Uiso   ? 		C 		-0.032541
C 1.0  		0.30205804858558605 		0.3015210991167812  0.6692235187051061 		Uiso   ? 		C 		-0.032056
C 1.0  		0.26996576625083857 		0.8029931305201179  0.6693860304872102 		Uiso   ? 		C 		-0.032056
C 1.0  		0.8089979759828868 		0.3052011776251227  0.6677609126661682 		Uiso   ? 		C 		-0.032056
C 1.0  		0.7758673526415025 		0.8054465161923455  0.6672733773198556 		Uiso   ? 		C 		-0.032056
C 1.0  		0.3438980586451971 		0.28532875368007854  0.5286508271849709 		Uiso   ? 		C 		-0.130606
C 1.0  		0.3063600170913291 		0.7784592737978411  0.528000780056554 		Uiso   ? 		C 		-0.130606
C 1.0  		0.8448204346903102 		0.28164867517173703  0.5304384567881171 		Uiso   ? 		C 		-0.130606
C 1.0  		0.8167916920207512 		0.7882728164867518  0.5309259921344297 		Uiso   ? 		C 		-0.130606
C 1.0  		0.047483422703441185 		0.20461236506378805  0.5494523352943088 		Uiso   ? 		C 		-0.032615
C 1.0  		0.013336582618309778 		0.6960255152109913  0.5510774531153508 		Uiso   ? 		C 		-0.032615
C 1.0  		0.5464189410966394 		0.1982335623159961  0.551239964897455 		Uiso   ? 		C 		-0.032615
C 1.0  		0.5111043843138463 		0.6928361138370952  0.5522150355900802 		Uiso   ? 		C 		-0.032615
C 1.0  		0.044897917051582956 		0.29931305201177627  0.5502648942048298 		Uiso   ? 		C 		-0.032210
C 1.0  		0.011852420875444525 		0.8103532875368008  0.5538401534111222 		Uiso   ? 		C 		-0.032210
C 1.0  		0.5471542477875736 		0.3012757605495584  0.5492898235122046 		Uiso   ? 		C 		-0.032210
C 1.0  		0.5099205334513347 		0.8005397448478901  0.5501023824227256 		Uiso   ? 		C 		-0.032210
C 1.0  		0.3037667196200369 		0.30323846908734053  0.5505899177690382 		Uiso   ? 		C 		-0.032618
C 1.0  		0.2707259206400112 		0.8032384690873406  0.5501023824227256 		Uiso   ? 		C 		-0.032618
C 1.0  		0.8050001282475298 		0.30103042198233565  0.5505899177690382 		Uiso   ? 		C 		-0.032618
C 1.0  		0.7756877039187855 		0.805937193326791  0.5518900120258718 		Uiso   ? 		C 		-0.032618
C 1.0  		0.24144086829625136 		0.045142296368989206  0.34273734845776316 		Uiso   ? 		C 		0.657898
C 1.0  		0.21353077961569095 		0.5392541707556429  0.34550004875353457 		Uiso   ? 		C 		0.657898
C 1.0  		0.7475683601040493 		0.03827281648675172  0.34354990736828417 		Uiso   ? 		C 		0.657898
C 1.0  		0.7190730685609208 		0.5426889106967616  0.34289986023986735 		Uiso   ? 		C 		0.657898
C 1.0  		0.24308384740087088 		0.04587831207065751  0.5611531836058113 		Uiso   ? 		C 		0.658131
C 1.0  		0.2121988330934512 		0.5399901864573111  0.562453277862645 		Uiso   ? 		C 		0.658131
C 1.0  		0.7441114667054815 		0.03900883218842002  0.5601781129131862 		Uiso   ? 		C 		0.658131
C 1.0  		0.7170379460459512 		0.5424435721295388  0.5626157896447492 		Uiso   ? 		C 		0.658131
C 1.0  		0.34742803019718416 		0.25711481844946027  0.34176227776513796 		Uiso   ? 		C 		0.657899
C 1.0  		0.31343000103849195 		0.7539254170755644  0.3424123248935548 		Uiso   ? 		C 		0.657899
C 1.0  		0.8424729522831604 		0.24975466143277725  0.3440374427145968 		Uiso   ? 		C 		0.657899
C 1.0  		0.8076993498371566 		0.7492639842983317  0.34354990736828417 		Uiso   ? 		C 		0.657899
C 1.0  		0.34658676498004126 		0.25883218842001965  0.563265836773166 		Uiso   ? 		C 		0.658129
C 1.0  		0.3079534040230935 		0.7514720314033367  0.5618032307342282 		Uiso   ? 		C 		0.658129
C 1.0  		0.8434784473248815 		0.25049067713444556  0.5635908603373744 		Uiso   ? 		C 		0.658129
C 1.0  		0.814869198988867 		0.7563788027477921  0.563265836773166 		Uiso   ? 		C 		0.658129
C 1.0  		0.24268299045713254 		0.04465161923454367  0.43650664673188805 		Uiso   ? 		C 		0.658111
C 1.0  		0.21434120703655596 		0.5434249263984299  0.4369941820782006 		Uiso   ? 		C 		0.658111
C 1.0  		0.7444224992878612 		0.04048086359175663  0.43829427633503426 		Uiso   ? 		C 		0.658111
C 1.0  		0.7120520303356496 		0.5409715407262022  0.434881528910846 		Uiso   ? 		C 		0.658111
C 1.0  		0.24119552764370292 		0.04465161923454367  0.6563850879188741 		Uiso   ? 		C 		0.657785
C 1.0  		0.21854954129090823 		0.541216879293425  0.6541099229694153 		Uiso   ? 		C 		0.657785
C 1.0  		0.7458114242065439 		0.03900883218842002  0.6545974583157278 		Uiso   ? 		C 		0.657785
C 1.0  		0.7166370891022129 		0.541216879293425  0.6544349465336237 		Uiso   ? 		C 		0.657785
C 1.0  		0.34538419414882626 		0.25515210991167814  0.434881528910846 		Uiso   ? 		C 		0.658109
C 1.0  		0.3116315056426826 		0.7524533856722277  0.43585659960347123 		Uiso   ? 		C 		0.658109
C 1.0  		0.8406261920242964 		0.2507360157016683  0.4366691585139922 		Uiso   ? 		C 		0.658109
C 1.0  		0.8110268675446997 		0.7529440628066733  0.4368316702960965 		Uiso   ? 		C 		0.658109
C 1.0  		0.3422363251640003 		0.25098135426889107  0.6568726232651867 		Uiso   ? 		C 		0.657789
C 1.0  		0.3083871069317475 		0.753189401373896  0.6581727175220202 		Uiso   ? 		C 		0.657789
C 1.0  		0.8470754381165004 		0.25343473994111876  0.6567101114830826 		Uiso   ? 		C 		0.657789
C 1.0  		0.8123346816354122 		0.7534347399411189  0.6565475997009783 		Uiso   ? 		C 		0.657789
C 1.0  		0.0744983968016108 		0.21614327772325811  0.4368316702960965 		Uiso   ? 		C 		0.658112
C 1.0  		0.04280697141060169 		0.7188420019627086  0.43926934702765946 		Uiso   ? 		C 		0.658112
C 1.0  		0.5756922540994375 		0.21810598626104025  0.4360191113855754 		Uiso   ? 		C 		0.658112
C 1.0  		0.5393152238784803 		0.7127085377821394  0.4366691585139922 		Uiso   ? 		C 		0.658112
C 1.0  		0.07754772789168979 		0.21884200196270856  0.6550849936620404 		Uiso   ? 		C 		0.657788
C 1.0  		0.04297120123517989 		0.7212953876349363  0.6567101114830826 		Uiso   ? 		C 		0.657788
C 1.0  		0.5761809272358965 		0.21270853778213936  0.6558975525725614 		Uiso   ? 		C 		0.657788
C 1.0  		0.5419482791266821 		0.7171246319921493  0.6575226703936036 		Uiso   ? 		C 		0.657788
C 1.0  		0.21532012147439197 		0.01840039254170756  0.4701465856274579 		Uiso   ? 		C 		-0.130699
C 1.0  		0.1889457604703159 		0.5100588812561335  0.4690090031527286 		Uiso   ? 		C 		-0.130699
C 1.0  		0.713569890941637 		0.014474975466143278  0.47144667988429156 		Uiso   ? 		C 		-0.130699
C 1.0  		0.690187882631197 		0.509568204121688  0.4664088146390613 		Uiso   ? 		C 		-0.130699
C 1.0  		0.28307563226032195 		0.3115799803729147  0.43569408782136704 		Uiso   ? 		C 		0.658113
C 1.0  		0.250361284760815 		0.810107948969578  0.4368316702960965 		Uiso   ? 		C 		0.658113
C 1.0  		0.7848171492596884 		0.31378802747791956  0.4360191113855754 		Uiso   ? 		C 		0.658113
C 1.0  		0.754359132496172 		0.8142787046123652  0.43634413494978386 		Uiso   ? 		C 		0.658113
C 1.0  		0.28732753418161594 		0.31795878312070663  0.6562225761367699 		Uiso   ? 		C 		0.657770
C 1.0  		0.2532483941949536 		0.8167320902845928  0.657197646829395 		Uiso   ? 		C 		0.657770
C 1.0  		0.7900571191559268 		0.3174681059862611  0.6557350407904573 		Uiso   ? 		C 		0.657770
C 1.0  		0.7557326385167159 		0.8157507360157018  0.6560600643546657 		Uiso   ? 		C 		0.657770
C 1.0  		0.07140080084847726 		0.21589793915603536  0.34273734845776316 		Uiso   ? 		C 		0.657899
C 1.0  		0.04284853090890567 		0.7210500490677135  0.34192478954724215 		Uiso   ? 		C 		0.657899
C 1.0  		0.5755937162046905 		0.21663395485770365  0.34013715994409593 		Uiso   ? 		C 		0.657899
C 1.0  		0.540828827292075 		0.7178606476938175  0.34208730132934634 		Uiso   ? 		C 		0.657899
C 1.0  		0.07868460679307349 		0.221540726202159  0.561640718952124 		Uiso   ? 		C 		0.658130
C 1.0  		0.04431856665555861 		0.7176153091265948  0.563265836773166 		Uiso   ? 		C 		0.658130
C 1.0  		0.5762224867342005 		0.21491658488714427  0.5637533721194786 		Uiso   ? 		C 		0.658130
C 1.0  		0.5415387086495553 		0.714180569185476  0.5634283485552702 		Uiso   ? 		C 		0.658130
C 1.0  		0.20458268879391844 		0.20559371933267911  0.5486397763837878 		Uiso   ? 		C 		-0.032213
C 1.0  		0.16420781083760425 		0.6960255152109913  0.5538401534111222 		Uiso   ? 		C 		-0.032213
C 1.0  		0.69311937822261 		0.189892051030422  0.5514024766795592 		Uiso   ? 		C 		-0.032213
C 1.0  		0.6622363720838282 		0.6903827281648676  0.5527025709363929 		Uiso   ? 		C 		-0.032213
C 1.0  		0.28747433693941743 		0.31697742885181557  0.5631033249910617 		Uiso   ? 		C 		0.658132
C 1.0  		0.25247952627239256 		0.8147693817468107  0.5622907660805408 		Uiso   ? 		C 		0.658132
C 1.0  		0.7891414484755642 		0.31648675171737  0.5618032307342282 		Uiso   ? 		C 		0.658132
C 1.0  		0.7531411427668182 		0.8135426889106968  0.5622907660805408 		Uiso   ? 		C 		0.658132
C 1.0  		0.043933981508165854 		0.3007850834151129  0.4483700068254948 		Uiso   ? 		C 		-0.032139
C 1.0  		0.013337875520236409 		0.8039744847890089  0.44804498326128644 		Uiso   ? 		C 		-0.032139
C 1.0  		0.5461333338477136 		0.30348380765456334  0.4478824714791822 		Uiso   ? 		C 		-0.032139
C 1.0  		0.5114167097981527 		0.8022571148184495  0.4498326128644326 		Uiso   ? 		C 		-0.032139
C 1.0  		0.04493277118513639 		0.3061825318940138  0.6658107712809179 		Uiso   ? 		C 		-0.032367
C 1.0  		0.012757369853780898 		0.8032384690873406  0.6682484480124808 		Uiso   ? 		C 		-0.032367
C 1.0  		0.5464926312931478 		0.3025024533856723  0.6680859362303766 		Uiso   ? 		C 		-0.032367
C 1.0  		0.5129041726115824 		0.8022571148184495  0.6685734715766892 		Uiso   ? 		C 		-0.032367
C 1.0  		0.20134499544773393 		0.20166830225711482  0.4473949361328696 		Uiso   ? 		C 		-0.032141
C 1.0  		0.16945649426723094 		0.7014229636898921  0.4473949361328696 		Uiso   ? 		C 		-0.032141
C 1.0  		0.7002650949427931 		0.1982335623159961  0.44869503038970326 		Uiso   ? 		C 		-0.032141
C 1.0  		0.6666109443313964 		0.6970068694798823  0.4488575421718074 		Uiso   ? 		C 		-0.032141
C 1.0  		0.2007732033146668 		0.2026496565260059  0.6700360776156271 		Uiso   ? 		C 		-0.032384
C 1.0  		0.16362730517114873 		0.695289499509323  0.6687359833587935 		Uiso   ? 		C 		-0.032384
C 1.0  		0.6964053364318492 		0.1913640824337586  0.666785841973543 		Uiso   ? 		C 		-0.032384
C 1.0  		0.6657609655808652 		0.6970068694798823  0.6698735658335229 		Uiso   ? 		C 		-0.032384
C 1.0  		0.32211311682369864 		0.012266928361138373  0.4490200539539116 		Uiso   ? 		C 		-0.032141
C 1.0  		0.308418047951647 		0.5139842983316978  0.44934507751812003 		Uiso   ? 		C 		-0.032141
C 1.0  		0.8209849514557033 		0.011285574092247301  0.45097019533916205 		Uiso   ? 		C 		-0.032141
C 1.0  		0.806864893208386 		0.5130029440628068  0.4490200539539116 		Uiso   ? 		C 		-0.032141
C 1.0  		0.3238787662545924 		0.013248282630029442  0.665973283063022 		Uiso   ? 		C 		-0.032398
C 1.0  		0.29879009507833926 		0.5130029440628068  0.6674358891019598 		Uiso   ? 		C 		-0.032398
C 1.0  		0.8193332588176954 		0.008832188420019628  0.6661357948451263 		Uiso   ? 		C 		-0.032398
C 1.0  		0.8075023772712844 		0.5130029440628068  0.6680859362303766 		Uiso   ? 		C 		-0.032398
C 1.0  		0.2308321648558393 		0.1739450441609421  0.4472324243507654 		Uiso   ? 		C 		-0.032139
C 1.0  		0.19579579469051037 		0.6695289499509324  0.4470699125686612 		Uiso   ? 		C 		-0.032139
C 1.0  		0.7277654066989835 		0.16781157998037294  0.44934507751812003 		Uiso   ? 		C 		-0.032139
C 1.0  		0.6964004327884931 		0.6690382728164868  0.4498326128644326 		Uiso   ? 		C 		-0.032139
C 1.0  		0.22555063546129694 		0.16805691854759572  0.6682484480124808 		Uiso   ? 		C 		-0.032356
C 1.0  		0.19317145297569696 		0.6668302257114819  0.6690610069230019 		Uiso   ? 		C 		-0.032356
C 1.0  		0.72249929620258 		0.15897939156035332  0.6674358891019598 		Uiso   ? 		C 		-0.032356
C 1.0  		0.6932197178387516 		0.6643768400392542  0.6682484480124808 		Uiso   ? 		C 		-0.032356
C 1.0  		0.04566348390357949 		0.1869479882237488  0.46835895602431177 		Uiso   ? 		C 		-0.130703
C 1.0  		0.014517710045472365 		0.68351324828263  0.47063412097377055 		Uiso   ? 		C 		-0.130703
C 1.0  		0.5456567785388289 		0.19160942100098138  0.4693340267169369 		Uiso   ? 		C 		-0.130703
C 1.0  		0.5116654547448873 		0.6837585868498528  0.4694965384990411 		Uiso   ? 		C 		-0.130703
C 1.0  		0.3251296019488619 		0.014474975466143278  0.5505899177690382 		Uiso   ? 		C 		-0.032215
C 1.0  		0.3069962770680486 		0.5149656526005889  0.5484772646016836 		Uiso   ? 		C 		-0.032215
C 1.0  		0.8220561384272557 		0.013002944062806674  0.5492898235122046 		Uiso   ? 		C 		-0.032215
C 1.0  		0.8068890256399133 		0.5117762512266929  0.5499398706406214 		Uiso   ? 		C 		-0.032215
C 1.0  		0.22460211881601877 		0.1665848871442591  0.551239964897455 		Uiso   ? 		C 		-0.032214
C 1.0  		0.1947487401504852 		0.6665848871442591  0.551239964897455 		Uiso   ? 		C 		-0.032214
C 1.0  		0.7193929867160582 		0.15701668302257116  0.5527025709363929 		Uiso   ? 		C 		-0.032214
C 1.0  		0.6960806866727249 		0.6658488714425909  0.5515649884616635 		Uiso   ? 		C 		-0.032214
C 1.0  		0.04821141198653541 		0.18056918547595682  0.6856372086976306 		Uiso   ? 		C 		-0.129007
C 1.0  		0.012068319857263421 		0.6913640824337587  0.6897000032502355 		Uiso   ? 		C 		-0.129007
C 1.0  		0.5444367806408372 		0.18449460255152111  0.6877498618649852 		Uiso   ? 		C 		-0.129007
C 1.0  		0.513137498660178 		0.686702649656526  0.6914876328533818 		Uiso   ? 		C 		-0.129007
C 1.0  		0.07515929802932544 		0.31648675171737  0.34273734845776316 		Uiso   ? 		C 		0.659418
C 1.0  		0.04442309464834504 		0.8159960745829246  0.34257483667565897 		Uiso   ? 		C 		0.659418
C 1.0  		0.5772668178388768 		0.31305201177625125  0.3415997659830337 		Uiso   ? 		C 		0.659418
C 1.0  		0.5413409175933505 		0.8128066732090286  0.3440374427145968 		Uiso   ? 		C 		0.659418
C 1.0  		0.07526454128882293 		0.313297350343474  0.561640718952124 		Uiso   ? 		C 		0.659568
C 1.0  		0.043034169729662286 		0.8174681059862611  0.5631033249910617 		Uiso   ? 		C 		0.659568
C 1.0  		0.5765395094146197 		0.313297350343474  0.5609906718237072 		Uiso   ? 		C 		0.659568
C 1.0  		0.5403441360850176 		0.8137880274779197  0.5618032307342282 		Uiso   ? 		C 		0.659568
C 1.0  		0.04335749217898589 		0.31280667320902844  0.5304384567881171 		Uiso   ? 		C 		-0.135144
C 1.0  		0.011904702075774654 		0.8206575073601572  0.532713621737576 		Uiso   ? 		C 		-0.135144
C 1.0  		0.546963196503993 		0.3174681059862611  0.5301134332239087 		Uiso   ? 		C 		-0.135144
C 1.0  		0.510307979665572 		0.8110893032384692  0.5289758507491793 		Uiso   ? 		C 		-0.135144
C 1.0  		0.18182363295431836 		0.21319921491658492  0.34224981311145053 		Uiso   ? 		C 		0.659415
C 1.0  		0.1532867819128857 		0.7154072620215899  0.34192478954724215 		Uiso   ? 		C 		0.659415
C 1.0  		0.6848642505110089 		0.21418056918547598  0.3424123248935548 		Uiso   ? 		C 		0.659415
C 1.0  		0.6531225520883075 		0.7129538763493622  0.34289986023986735 		Uiso   ? 		C 		0.659415
C 1.0  		0.19097162622455532 		0.22129538763493622  0.5626157896447492 		Uiso   ? 		C 		0.659564
C 1.0  		0.15737445400960143 		0.7193326790971541  0.5639158839015829 		Uiso   ? 		C 		0.659564
C 1.0  		0.685493021040519 		0.2124631992149166  0.5621282542984366 		Uiso   ? 		C 		0.659564
C 1.0  		0.6531795304847504 		0.7122178606476939  0.5634283485552702 		Uiso   ? 		C 		0.659564
C 1.0  		0.07351631892470586 		0.3157507360157017  0.43569408782136704 		Uiso   ? 		C 		0.659553
C 1.0  		0.04359724832934114 		0.8147693817468107  0.43634413494978386 		Uiso   ? 		C 		0.659553
C 1.0  		0.5772996638037924 		0.3135426889106968  0.4366691585139922 		Uiso   ? 		C 		0.659553
C 1.0  		0.5425347748911771 		0.8147693817468107  0.43813176455293007 		Uiso   ? 		C 		0.659553
C 1.0  		0.07614066063951924 		0.31844946025515214  0.6542724347515194 		Uiso   ? 		C 		0.659446
C 1.0  		0.044063797202910704 		0.8169774288518156  0.6560600643546657 		Uiso   ? 		C 		0.659446
C 1.0  		0.5778473235053323 		0.31378802747791956  0.6562225761367699 		Uiso   ? 		C 		0.659446
C 1.0  		0.5432379508839067 		0.8157507360157018  0.6563850879188741 		Uiso   ? 		C 		0.659446
C 1.0  		0.18931993358654742 		0.21884200196270856  0.4350440406929502 		Uiso   ? 		C 		0.659548
C 1.0  		0.1545376176071553 		0.7166339548577036  0.4347190171287418 		Uiso   ? 		C 		0.659548
C 1.0  		0.6867197243032612 		0.21491658488714427  0.4366691585139922 		Uiso   ? 		C 		0.659548
C 1.0  		0.6527304086779575 		0.7134445534838078  0.4368316702960965 		Uiso   ? 		C 		0.659548
C 1.0  		0.19006466907758113 		0.22203140333660454  0.6576851821757076 		Uiso   ? 		C 		0.659444
C 1.0  		0.15420245259324825 		0.7163886162904809  0.6573601586114993 		Uiso   ? 		C 		0.659444
C 1.0  		0.6868249675627588 		0.2117271835132483  0.655572529008353 		Uiso   ? 		C 		0.659444
C 1.0  		0.655297771996328 		0.7168792934249265  0.6575226703936036 		Uiso   ? 		C 		0.659444
C 1.0  		0.34063432792246917 		0.0429342492639843  0.43748171742451325 		Uiso   ? 		C 		0.659553
C 1.0  		0.3124152148281669 		0.5419528949950932  0.43845678811713845 		Uiso   ? 		C 		0.659553
C 1.0  		0.8411075821607894 		0.04048086359175663  0.43845678811713845 		Uiso   ? 		C 		0.659553
C 1.0  		0.8141151723292293 		0.5419528949950932  0.43764422920661744 		Uiso   ? 		C 		0.659553
C 1.0  		0.34082269017857475 		0.04416094210009814  0.6536223876231027 		Uiso   ? 		C 		0.659454
C 1.0  		0.3077403317002451 		0.5419528949950932  0.6549224818799363 		Uiso   ? 		C 		0.659454
C 1.0  		0.8416706607604681 		0.037782139352306184  0.6542724347515194 		Uiso   ? 		C 		0.659454
C 1.0  		0.8143846454133052 		0.541216879293425  0.6557350407904573 		Uiso   ? 		C 		0.659454
C 1.0  		0.24782772352918844 		0.16118743866535823  0.4350440406929502 		Uiso   ? 		C 		0.659548
C 1.0  		0.21424597021237352 		0.6562806673209028  0.4352065524750544 		Uiso   ? 		C 		0.659548
C 1.0  		0.742741261755502 		0.15186457311089305  0.43748171742451325 		Uiso   ? 		C 		0.659548
C 1.0  		0.712504453213007 		0.654072620215898  0.4371566938603048 		Uiso   ? 		C 		0.659548
C 1.0  		0.2452275142459024 		0.15726202158979394  0.6568726232651867 		Uiso   ? 		C 		0.659438
C 1.0  		0.20997864939294064 		0.6528459273797842  0.6563850879188741 		Uiso   ? 		C 		0.659438
C 1.0  		0.7423645372432911 		0.14941118743866535  0.655572529008353 		Uiso   ? 		C 		0.659438
C 1.0  		0.7134114103599811 		0.6533366045142297  0.6568726232651867 		Uiso   ? 		C 		0.659438
C 1.0  		0.3389256568880184 		0.041216879293424935  0.3446874898430136 		Uiso   ? 		C 		0.659418
C 1.0  		0.30830341029992386 		0.5392541707556429  0.3438749309324926 		Uiso   ? 		C 		0.659418
C 1.0  		0.8386387567371658 		0.03851815505397449  0.3440374427145968 		Uiso   ? 		C 		0.659418
C 1.0  		0.8128073582385169 		0.5414622178606477  0.3440374427145968 		Uiso   ? 		C 		0.659418
C 1.0  		0.3435281427213583 		0.04489695780176644  0.5626157896447492 		Uiso   ? 		C 		0.659569
C 1.0  		0.313462269368192 		0.5448969578017665  0.5598530893489777 		Uiso   ? 		C 		0.659569
C 1.0  		0.8436903643772988 		0.04097154072620216  0.5621282542984366 		Uiso   ? 		C 		0.659569
C 1.0  		0.812594863550884 		0.5414622178606477  0.5611531836058113 		Uiso   ? 		C 		0.659569
C 1.0  		0.2124350202088912 		0.01815505397448479  0.528000780056554 		Uiso   ? 		C 		-0.130606
C 1.0  		0.17889081005310475 		0.5026987242394505  0.5320635746091591 		Uiso   ? 		C 		-0.130606
C 1.0  		0.710283932732398 		0.013002944062806674  0.5283258036207624 		Uiso   ? 		C 		-0.130606
C 1.0  		0.6981400104349696 		0.5093228655544653  0.5281632918386583 		Uiso   ? 		C 		-0.130606
C 1.0  		0.3132257454726535 		0.31280667320902844  0.46803393246010333 		Uiso   ? 		C 		-0.130701
C 1.0  		0.2802573437872098 		0.809126594700687  0.4686839795885201 		Uiso   ? 		C 		-0.130701
C 1.0  		0.816700065937998 		0.31550539744847894  0.4673838853316865 		Uiso   ? 		C 		-0.130701
C 1.0  		0.784533378140031 		0.8142787046123652  0.46852146780641596 		Uiso   ? 		C 		-0.130701
C 1.0  		0.20888830244896475 		0.01913640824337586  0.30990996847271424 		Uiso   ? 		C 		-0.129648
C 1.0  		0.20040304653571084 		0.5066241413150148  0.3129976923326941 		Uiso   ? 		C 		-0.129648
C 1.0  		0.7206130534297976 		0.008586849852796861  0.30974745669061005 		Uiso   ? 		C 		-0.129648
C 1.0  		0.7006001223252046 		0.509568204121688  0.30974745669061005 		Uiso   ? 		C 		-0.129648
C 1.0  		0.19742495746978256 		0.08120706575073602  0.17275002437676729 		Uiso   ? 		C 		0.543917
C 1.0  		0.16353217157058791 		0.5748282630029441  0.16787467091364122 		Uiso   ? 		C 		0.543917
C 1.0  		0.6996638611389965 		0.07973503434739942  0.16819969447784963 		Uiso   ? 		C 		0.543917
C 1.0  		0.6673262381517006 		0.5807163886162905  0.17031234764520428 		Uiso   ? 		C 		0.543917
C 1.0  		0.41808225942535926 		0.0745829244357213  0.16966230051678746 		Uiso   ? 		C 		0.543918
C 1.0  		0.3866428800516491 		0.5731108930323847  0.1675496473494328 		Uiso   ? 		C 		0.543918
C 1.0  		0.9229213723778592 		0.07703631010794898  0.16657457665680758 		Uiso   ? 		C 		0.543918
C 1.0  		0.883806043649203 		0.5704121687929343  0.17258751259466312 		Uiso   ? 		C 		0.543918
C 1.0  		0.3454840593533738 		0.28680078508341517  0.2514057269152013 		Uiso   ? 		C 		-0.130771
C 1.0  		0.31103690838788867 		0.784838076545633  0.2501056326583677 		Uiso   ? 		C 		-0.130771
C 1.0  		0.8513856457440379 		0.2892541707556428  0.2502681444404719 		Uiso   ? 		C 		-0.130771
C 1.0  		0.818934065963856 		0.7917075564278705  0.24783046770890887 		Uiso   ? 		C 		-0.130771
C 1.0  		0.4257869351843239 		0.3007850834151129  0.1719374654662463 		Uiso   ? 		C 		0.543913
C 1.0  		0.3891491454126794 		0.7978410206084396  0.1716124419020379 		Uiso   ? 		C 		0.543913
C 1.0  		0.9282470470745591 		0.30103042198233565  0.17486267754412194 		Uiso   ? 		C 		0.543913
C 1.0  		0.8928929389620996 		0.7998037291462218  0.17258751259466312 		Uiso   ? 		C 		0.543913
C 1.0  		0.10514725840146434 		0.16609421000981356  0.17860044853251858 		Uiso   ? 		C 		0.543913
C 1.0  		0.07664325332494737 		0.668792934249264  0.17453765397991355 		Uiso   ? 		C 		0.543913
C 1.0  		0.6129217456511574 		0.17271835132482827  0.1729125361588715 		Uiso   ? 		C 		0.543913
C 1.0  		0.5708073588641146 		0.6673209028459275  0.17258751259466312 		Uiso   ? 		C 		0.543913
C 1.0  		0.10269174048372039 		0.3881256133464181  0.1675496473494328 		Uiso   ? 		C 		0.543917
C 1.0  		0.07919778354903223 		0.8910696761530914  0.1662495530925992 		Uiso   ? 		C 		0.543917
C 1.0  		0.615018440535061 		0.39450441609421005  0.16901225338837064 		Uiso   ? 		C 		0.543917
C 1.0  		0.5778329910618767 		0.8913150147203142  0.17031234764520428 		Uiso   ? 		C 		0.543917
C 1.0  		0.3264245141295411 		0.3893523061825319  0.16332434101472354 		Uiso   ? 		C 		0.543916
C 1.0  		0.3014430943814233 		0.8922963689892052  0.1716124419020379 		Uiso   ? 		C 		0.543916
C 1.0  		0.8363239482555623 		0.3959764474975467  0.17047485942730844 		Uiso   ? 		C 		0.543916
C 1.0  		0.7978615224879433 		0.8864082433758588  0.16949978873468324 		Uiso   ? 		C 		0.543916
C 1.0  		0.142907594631037 		0.24926398429833171  0.2814704066044788 		Uiso   ? 		C 		0.604400
C 1.0  		0.12055722196248309 		0.7502453385672228  0.2787077063087074 		Uiso   ? 		C 		0.604400
C 1.0  		0.6607591565608307 		0.2556427870461237  0.28098287125816623 		Uiso   ? 		C 		0.604400
C 1.0  		0.6107234797662932 		0.7446025515210992  0.280007800565541 		Uiso   ? 		C 		0.604400
C 1.0  		0.04482752792563885 		0.30937193326790974  0.25351838008255595 		Uiso   ? 		C 		-0.136000
C 1.0  		0.014798516874663825 		0.8226202158979393  0.24539279097734584 		Uiso   ? 		C 		-0.136000
C 1.0  		0.5470443073319633 		0.31550539744847894  0.2489680501836383 		Uiso   ? 		C 		-0.136000
C 1.0  		0.5121151885947697 		0.8142787046123652  0.24994312087626352 		Uiso   ? 		C 		-0.136000
C 1.0  		0.2458575432694653 		0.3412659470068695  0.27919524165501997 		Uiso   ? 		C 		0.604401
C 1.0  		0.20560734380806303 		0.8383218842001963  0.27952026521922835 		Uiso   ? 		C 		0.604401
C 1.0  		0.757509216096879 		0.35819430814524045  0.280007800565541 		Uiso   ? 		C 		0.604401
C 1.0  		0.7102339620729303 		0.840775269872424  0.2804953359118536 		Uiso   ? 		C 		0.604401
C 1.0  		0.04230312023112076 		0.18277723258096173  0.31072252738323525 		Uiso   ? 		C 		-0.129649
C 1.0  		0.012090444120152977 		0.6837585868498528  0.3128351805505899 		Uiso   ? 		C 		-0.129649
C 1.0  		0.5431396882521509 		0.19210009813542692  0.30698475639483863 		Uiso   ? 		C 		-0.129649
C 1.0  		0.5113631356958959 		0.6840039254170756  0.3102349920369227 		Uiso   ? 		C 		-0.129649
C 1.0  		0.14483274228252233 		0.34151128557409227  0.2811453830402704 		Uiso   ? 		C 		0.604401
C 1.0  		0.11336051694389665 		0.8395485770363103  0.27952026521922835 		Uiso   ? 		C 		0.604401
C 1.0  		0.6427406413711099 		0.3420019627085378  0.27854519452660315 		Uiso   ? 		C 		0.604401
C 1.0  		0.6217550611897114 		0.8427379784102061  0.2804953359118536 		Uiso   ? 		C 		0.604401
C 1.0  		0.2822572409806535 		0.12634936211972522  0.280820359476062 		Uiso   ? 		C 		0.604400
C 1.0  		0.2515451700312004 		0.6246319921491659  0.2806578476939578 		Uiso   ? 		C 		0.604400
C 1.0  		0.7786515366556463 		0.12168792934249265  0.2803328241297494 		Uiso   ? 		C 		0.604400
C 1.0  		0.7455691781773167 		0.6194798822374877  0.2806578476939578 		Uiso   ? 		C 		0.604400
C 1.0  		0.38708880401149925 		0.22423945044160945  0.2803328241297494 		Uiso   ? 		C 		0.604401
C 1.0  		0.34575870404515624 		0.7178606476938175  0.2813078948223746 		Uiso   ? 		C 		0.604401
C 1.0  		0.8901186998661637 		0.21712463199214918  0.2803328241297494 		Uiso   ? 		C 		0.604401
C 1.0  		0.8576342741210663 		0.7190873405299314  0.28017031234764517 		Uiso   ? 		C 		0.604401
C 1.0  		0.3717087909406779 		0.12463199214916586  0.2793577534371242 		Uiso   ? 		C 		0.604401
C 1.0  		0.355485910079922 		0.6187438665358195  0.27952026521922835 		Uiso   ? 		C 		0.604401
C 1.0  		0.8852407508507085 		0.11727183513248284  0.2803328241297494 		Uiso   ? 		C 		0.604401
C 1.0  		0.847571325437178 		0.6084396467124632  0.2796827770013326 		Uiso   ? 		C 		0.604401
C 1.0  		0.16905818871947215 		0.993866535819431  0.27919524165501997 		Uiso   ? 		C 		-0.243986
C 1.0  		0.17711511977902208 		0.46982335623159965  0.2803328241297494 		Uiso   ? 		C 		-0.243986
C 1.0  		0.6802875611990953 		0.9933758586849855  0.2790327298729158 		Uiso   ? 		C 		-0.243986
C 1.0  		0.6684926619474354 		0.46957801766437685  0.28017031234764517 		Uiso   ? 		C 		-0.243986
C 1.0  		0.01657050048233579 		0.14278704612365065  0.2798452887834368 		Uiso   ? 		C 		-0.243988
C 1.0  		0.9811527086086831 		0.6469578017664378  0.2806578476939578 		Uiso   ? 		C 		-0.243988
C 1.0  		0.51229848246679 		0.15039254170755645  0.27952026521922835 		Uiso   ? 		C 		-0.243988
C 1.0  		0.48122510590326484 		0.6432777232580962  0.27919524165501997 		Uiso   ? 		C 		-0.243988
C 1.0  		0.35718532435364275 		0.3314524043179588  0.2798452887834368 		Uiso   ? 		C 		-0.243985
C 1.0  		0.32484569319770906 		0.826054955839058  0.28017031234764517 		Uiso   ? 		C 		-0.243985
C 1.0  		0.8573629649077221 		0.3245829244357213  0.28277050086131245 		Uiso   ? 		C 		-0.243985
C 1.0  		0.8196385692663863 		0.8228655544651621  0.2806578476939578 		Uiso   ? 		C 		-0.243985
C 1.0  		0.18474123610599597 		0.991658488714426  0.2990216790717327 		Uiso   ? 		C 		0.118183
C 1.0  		0.19802472633228316 		0.48061825318940143  0.30080930867487893 		Uiso   ? 		C 		0.118183
C 1.0  		0.6933201262706408 		0.9833169774288519  0.2990216790717327 		Uiso   ? 		C 		0.118183
C 1.0  		0.6900069065986792 		0.4798822374877331  0.29918419085383685 		Uiso   ? 		C 		0.118183
C 1.0  		0.18058688884838714 		0.17885181550539747  0.25238079760782656 		Uiso   ? 		C 		-0.136000
C 1.0  		0.15306424638206398 		0.68351324828263  0.25319335651834757 		Uiso   ? 		C 		-0.136000
C 1.0  		0.678321844579008 		0.17517173699705593  0.2483180030552215 		Uiso   ? 		C 		-0.136000
C 1.0  		0.6484946065136397 		0.6803238469087342  0.25254330938993075 		Uiso   ? 		C 		-0.136000
C 1.0  		0.013658577757832746 		0.16118743866535823  0.29983423798225367 		Uiso   ? 		C 		0.118188
C 1.0  		0.9837984937275487 		0.6658488714425909  0.3014593558032957 		Uiso   ? 		C 		0.118188
C 1.0  		0.513163199256623 		0.17124631992149167  0.29755907303279483 		Uiso   ? 		C 		0.118188
C 1.0  		0.48222791191751097 		0.6614327772325811  0.2999967497643579 		Uiso   ? 		C 		0.118188
C 1.0  		0.31942294554755846 		0.31967615309126596  0.3108850391653395 		Uiso   ? 		C 		-0.129648
C 1.0  		0.28685540080585303 		0.8172227674190383  0.3102349920369227 		Uiso   ? 		C 		-0.129648
C 1.0  		0.8191601778282332 		0.3157507360157017  0.3121851334221731 		Uiso   ? 		C 		-0.129648
C 1.0  		0.7806669142643364 		0.8120706575073603  0.31169759807586045 		Uiso   ? 		C 		-0.129648
C 1.0  		0.3418883958715555 		0.3140333660451423  0.30080930867487893 		Uiso   ? 		C 		0.118185
C 1.0  		0.3065979715202898 		0.8074092247301277  0.2995092144180453 		Uiso   ? 		C 		0.118185
C 1.0  		0.8361885824664981 		0.30348380765456334  0.30162186758539994 		Uiso   ? 		C 		0.118185
C 1.0  		0.8010228366101444 		0.8034838076545634  0.30162186758539994 		Uiso   ? 		C 		0.118185
C 1.0  		0.18466683064277628 		0.9889597644749755  0.25936880423830727 		Uiso   ? 		C 		0.118775
C 1.0  		0.1982941994163589 		0.4798822374877331  0.26050638671303666 		Uiso   ? 		C 		0.118775
C 1.0  		0.6946782133930456 		0.9877330716388617  0.25871875710989045 		Uiso   ? 		C 		0.118775
C 1.0  		0.6908568853492105 		0.4798822374877331  0.26050638671303666 		Uiso   ? 		C 		0.118775
C 1.0  		0.01352719389817017 		0.15922473012757607  0.25985633958461984 		Uiso   ? 		C 		0.118778
C 1.0  		0.9806197869464448 		0.6675662414131502  0.2616439691877661 		Uiso   ? 		C 		0.118778
C 1.0  		0.5146486539014148 		0.16486751717369974  0.257581174635161 		Uiso   ? 		C 		0.118778
C 1.0  		0.48047097602000555 		0.6621687929342492  0.25839373354568207 		Uiso   ? 		C 		0.118778
C 1.0  		0.3383155375114639 		0.30986261040235524  0.2601813631488283 		Uiso   ? 		C 		0.118776
C 1.0  		0.3058136846995898 		0.8083905789990187  0.2600188513667241 		Uiso   ? 		C 		0.118776
C 1.0  		0.8393605838828513 		0.30642787046123654  0.2616439691877661 		Uiso   ? 		C 		0.118776
C 1.0  		0.8042518164229404 		0.8056918547595683  0.25969382780251565 		Uiso   ? 		C 		0.118776
C 1.0  		0.20960110639039686 		0.9852796859666341  0.21874085871225663 		Uiso   ? 		C 		-0.082159
C 1.0  		0.2053326647084067 		0.48503434739941126  0.21467806415965154 		Uiso   ? 		C 		-0.082159
C 1.0  		0.7053183666728251 		0.9847890088321886  0.21435304059544313 		Uiso   ? 		C 		-0.082159
C 1.0  		0.7108092617238051 		0.48748773307163895  0.2171157408912146 		Uiso   ? 		C 		-0.082159
C 1.0  		0.3244988232507141 		0.009813542688910697  0.24880553840153408 		Uiso   ? 		C 		-0.136000
C 1.0  		0.29572333692148356 		0.5068694798822375  0.2491305619657425 		Uiso   ? 		C 		-0.136000
C 1.0  		0.8211230406801163 		0.008586849852796861  0.24620534988786683 		Uiso   ? 		C 		-0.136000
C 1.0  		0.8030312752976071 		0.5112855740922474  0.25156823869730555 		Uiso   ? 		C 		-0.136000
C 1.0  		0.014420059456805967 		0.19160942100098138  0.22264114148275752 		Uiso   ? 		C 		-0.082162
C 1.0  		0.9802336680420082 		0.6871933267909717  0.217440764455423 		Uiso   ? 		C 		-0.082162
C 1.0  		0.5163720629751675 		0.18743866535819434  0.21565313485227677 		Uiso   ? 		C 		-0.082162
C 1.0  		0.47985895169843495 		0.6911187438665359  0.21922839405856923 		Uiso   ? 		C 		-0.082162
C 1.0  		0.31257822056656626 		0.2809126594700687  0.22036597653329867 		Uiso   ? 		C 		-0.082161
C 1.0  		0.2806414545230087 		0.7831207065750737  0.21955341762277764 		Uiso   ? 		C 		-0.082161
C 1.0  		0.811866331040448 		0.27821393523061827  0.22247862970065327 		Uiso   ? 		C 		-0.082161
C 1.0  		0.7793162133655194 		0.7791952894995094  0.21906588227646503 		Uiso   ? 		C 		-0.082161
C 1.0  		0.3042249261481905 		0.9798822374877332  0.29885916728962847 		Uiso   ? 		C 		0.119831
C 1.0  		0.30520516789582697 		0.48503434739941126  0.2990216790717327 		Uiso   ? 		C 		0.119831
C 1.0  		0.8003189109428297 		0.9818449460255152  0.2990216790717327 		Uiso   ? 		C 		0.119831
C 1.0  		0.807862355575556 		0.4882237487733072  0.29983423798225367 		Uiso   ? 		C 		0.119831
C 1.0  		0.2188252797360144 		0.01521099116781158  0.331361523710469 		Uiso   ? 		C 		-0.032224
C 1.0  		0.2120594165592375 		0.5125122669283612  0.33331166509571947 		Uiso   ? 		C 		-0.032224
C 1.0  		0.7244292442737998 		0.006869479882237488  0.3315240354925732 		Uiso   ? 		C 		-0.032224
C 1.0  		0.7071063468138515 		0.5115309126594701  0.3318490590567816 		Uiso   ? 		C 		-0.032224
C 1.0  		0.013812017064637111 		0.3110893032384691  0.3014593558032957 		Uiso   ? 		C 		0.119830
C 1.0  		0.98329501373604 		0.805937193326791  0.3001592615464621 		Uiso   ? 		C 		0.119830
C 1.0  		0.5158122854460532 		0.3044651619234544  0.29983423798225367 		Uiso   ? 		C 		0.119830
C 1.0  		0.48284589192924715 		0.8071638861629049  0.30064679689277474 		Uiso   ? 		C 		0.119830
C 1.0  		0.19172912599412684 		0.16118743866535823  0.30064679689277474 		Uiso   ? 		C 		0.119831
C 1.0  		0.15541778770300108 		0.6567713444553485  0.30308447362433777 		Uiso   ? 		C 		0.119831
C 1.0  		0.6916305880993798 		0.1597154072620216  0.3014593558032957 		Uiso   ? 		C 		0.119831
C 1.0  		0.658802283806987 		0.6597154072620217  0.3014593558032957 		Uiso   ? 		C 		0.119831
C 1.0  		0.30610453237197016 		0.9793915603532877  0.25888126889199464 		Uiso   ? 		C 		0.119208
C 1.0  		0.2996059005541543 		0.48233562315996076  0.25888126889199464 		Uiso   ? 		C 		0.119208
C 1.0  		0.8028272876961193 		0.9796368989205103  0.25806870998147363 		Uiso   ? 		C 		0.119208
C 1.0  		0.8165679324037505 		0.4928851815505398  0.25969382780251565 		Uiso   ? 		C 		0.119208
C 1.0  		0.01506084459026888 		0.30593719332679103  0.26050638671303666 		Uiso   ? 		C 		0.119206
C 1.0  		0.9854615201106721 		0.8081452404317959  0.25806870998147363 		Uiso   ? 		C 		0.119206
C 1.0  		0.5175538024454196 		0.3066732090284593  0.25871875710989045 		Uiso   ? 		C 		0.119206
C 1.0  		0.48298398115366037 		0.8044651619234544  0.2606688984951409 		Uiso   ? 		C 		0.119206
C 1.0  		0.18540925559294769 		0.15407262021589796  0.2608314102772451 		Uiso   ? 		C 		0.119207
C 1.0  		0.15746162375135891 		0.6587340529931306  0.2618064809698703 		Uiso   ? 		C 		0.119207
C 1.0  		0.6897992467386548 		0.15775269872423947  0.25969382780251565 		Uiso   ? 		C 		0.119207
C 1.0  		0.65347248954939 		0.6562806673209028  0.2609939220593493 		Uiso   ? 		C 		0.119207
C 1.0  		0.3188434919279125 		0.9712953876349363  0.2796827770013326 		Uiso   ? 		C 		-0.243569
C 1.0  		0.32214105914525826 		0.49043179587831215  0.2769200767055611 		Uiso   ? 		C 		-0.243569
C 1.0  		0.8168673559780236 		0.9766928361138372  0.2790327298729158 		Uiso   ? 		C 		-0.243569
C 1.0  		0.8344369214003211 		0.5026987242394505  0.2814704066044788 		Uiso   ? 		C 		-0.243569
C 1.0  		0.013743636107330814 		0.32752698724239454  0.2798452887834368 		Uiso   ? 		C 		-0.243569
C 1.0  		0.982900181298215 		0.8238469087340531  0.2787077063087074 		Uiso   ? 		C 		-0.243569
C 1.0  		0.5145674742576969 		0.32237487733071646  0.2790327298729158 		Uiso   ? 		C 		-0.243569
C 1.0  		0.4828673353332994 		0.8233562315996075  0.28017031234764517 		Uiso   ? 		C 		-0.243569
C 1.0  		0.17048033808968313 		0.13738959764474978  0.2821204537328956 		Uiso   ? 		C 		-0.243566
C 1.0  		0.1379389339481428 		0.6400883218842003  0.28195794195079144 		Uiso   ? 		C 		-0.243566
C 1.0  		0.673529669179762 		0.1400883218842002  0.28098287125816623 		Uiso   ? 		C 		-0.243566
C 1.0  		0.63757092296932 		0.6393523061825319  0.2821204537328956 		Uiso   ? 		C 		-0.243566
C 1.0  		0.20920665243918454 		0.147693817468106  0.25059316800468034 		Uiso   ? 		C 		-0.136000
C 1.0  		0.1773268647920699 		0.6491658488714426  0.25124321513309716 		Uiso   ? 		C 		-0.136000
C 1.0  		0.7150686875001824 		0.1543179587831207  0.25059316800468034 		Uiso   ? 		C 		-0.136000
C 1.0  		0.6763300832837371 		0.6501472031403337  0.25124321513309716 		Uiso   ? 		C 		-0.136000
C 1.0  		0.294395200289276 		0.9869970559371933  0.2164656937627978 		Uiso   ? 		C 		-0.082981
C 1.0  		0.290280266729838 		0.481108930323847  0.21419052881333897 		Uiso   ? 		C 		-0.082981
C 1.0  		0.7929472888055127 		0.9828263002944064  0.21337796990281793 		Uiso   ? 		C 		-0.082981
C 1.0  		0.7921685864870059 		0.48233562315996076  0.21776578801963142 		Uiso   ? 		C 		-0.082981
C 1.0  		0.01765771839511661 		0.27330716388616294  0.22280365326486168 		Uiso   ? 		C 		-0.082985
C 1.0  		0.9862310688920704 		0.7863101079489697  0.21597815841648518 		Uiso   ? 		C 		-0.082985
C 1.0  		0.5187637595002224 		0.2818940137389598  0.21809081158383983 		Uiso   ? 		C 		-0.082985
C 1.0  		0.48217624276027027 		0.7828753680078508  0.21825332336594402 		Uiso   ? 		C 		-0.082985
C 1.0  		0.21915768690669868 		0.1884200196270854  0.2231286768290701 		Uiso   ? 		C 		-0.082983
C 1.0  		0.1892473298447223 		0.6891560353287538  0.2237787239574869 		Uiso   ? 		C 		-0.082983
C 1.0  		0.7239726674276714 		0.19210009813542692  0.22264114148275752 		Uiso   ? 		C 		-0.082983
C 1.0  		0.6805330394831393 		0.6827772325809618  0.22085351187961125 		Uiso   ? 		C 		-0.082983
C 1.0  		0.33891884829964614 		0.27919528949950934  0.331361523710469 		Uiso   ? 		C 		-0.032225
C 1.0  		0.3024761261488578 		0.7728164867517174  0.33038645301784375 		Uiso   ? 		C 		-0.032225
C 1.0  		0.8320667370950661 		0.2688910696761531  0.33331166509571947 		Uiso   ? 		C 		-0.032225
C 1.0  		0.7939743304749076 		0.7664376840039255  0.33103650014626057 		Uiso   ? 		C 		-0.032225
C 1.0  		0.20568392947928987 		0.45853778213935237  0.31039750381902687 		Uiso   ? 		C 		-0.129650
C 1.0  		0.16919495063408468 		0.96099116781158  0.31039750381902687 		Uiso   ? 		C 		-0.129650
C 1.0  		0.6955652953008852 		0.4565750736015702  0.3094224331264016 		Uiso   ? 		C 		-0.129650
C 1.0  		0.6730506928077531 		0.9551030421982336  0.31039750381902687 		Uiso   ? 		C 		-0.129650
C 1.0  		0.4841787945733152 		0.16045142296368992  0.30974745669061005 		Uiso   ? 		C 		-0.129650
C 1.0  		0.4534888478867516 		0.6511285574092248  0.3108850391653395 		Uiso   ? 		C 		-0.129650
C 1.0  		0.9845186567833349 		0.14965652600588814  0.3102349920369227 		Uiso   ? 		C 		-0.129650
C 1.0  		0.9542684375113386 		0.6611874386653582  0.31007248025481843 		Uiso   ? 		C 		-0.129650
C 1.0  		0.20041982715152423 		0.4560843964671247  0.24848051483732567 		Uiso   ? 		C 		-0.130774
C 1.0  		0.16843479624491203 		0.9607458292443573  0.24766795592680468 		Uiso   ? 		C 		-0.130774
C 1.0  		0.6953769330447797 		0.4553483807654564  0.2504306562225761 		Uiso   ? 		C 		-0.130774
C 1.0  		0.6791976198509656 		0.9580471050049069  0.24685539701628365 		Uiso   ? 		C 		-0.130774
C 1.0  		0.4857386546813267 		0.1567713444553484  0.24636786166997104 		Uiso   ? 		C 		-0.130774
C 1.0  		0.4508645061719382 		0.6484298331697743  0.24555530275945003 		Uiso   ? 		C 		-0.130774
C 1.0  		0.9836029861029725 		0.14867517173699707  0.24961809731205511 		Uiso   ? 		C 		-0.130774
C 1.0  		0.9509978982002386 		0.6567713444553485  0.2502681444404719 		Uiso   ? 		C 		-0.130774
C 1.0  		0.32382849322289997 		0.009322865554465163  0.31072252738323525 		Uiso   ? 		C 		-0.134438
C 1.0  		0.30308825369405 		0.510549558390579  0.30990996847271424 		Uiso   ? 		C 		-0.134438
C 1.0  		0.8178303771061268 		0.011776251226692838  0.3094224331264016 		Uiso   ? 		C 		-0.134438
C 1.0  		0.8002272848600764 		0.5090775269872425  0.30958494490850585 		Uiso   ? 		C 		-0.134438
C 1.0  		0.20884721736225473 		0.4597644749754662  0.332986641531511 		Uiso   ? 		C 		-0.032224
C 1.0  		0.17898512516333287 		0.9580471050049069  0.331361523710469 		Uiso   ? 		C 		-0.032224
C 1.0  		0.6999707053447313 		0.45731108930323855  0.3323365944030942 		Uiso   ? 		C 		-0.032224
C 1.0  		0.676785772823785 		0.9553483807654565  0.33266161796730265 		Uiso   ? 		C 		-0.032224
C 1.0  		0.4866824741304921 		0.1692836113837095  0.33119901192836476 		Uiso   ? 		C 		-0.032226
C 1.0  		0.4522420285297576 		0.6626594700686949  0.33119901192836476 		Uiso   ? 		C 		-0.032226
C 1.0  		0.9827744507564935 		0.16486751717369974  0.3290863587610101 		Uiso   ? 		C 		-0.032226
C 1.0  		0.9550326082377869 		0.674190382728165  0.32973640588942693 		Uiso   ? 		C 		-0.032226
C 1.0  		0.20188315753342662 		0.45731108930323855  0.22589137712484153 		Uiso   ? 		C 		-0.029971
C 1.0  		0.17865867368281413 		0.9595191364082435  0.22654142425325832 		Uiso   ? 		C 		-0.029971
C 1.0  		0.7041394882694173 		0.4592737978410207  0.2283290538564046 		Uiso   ? 		C 		-0.029971
C 1.0  		0.6805624123381211 		0.9578017664376841  0.2249163064322163 		Uiso   ? 		C 		-0.029971
C 1.0  		0.48655980380421787 		0.16903827281648676  0.22605388890694575 		Uiso   ? 		C 		-0.029975
C 1.0  		0.45092750907429446 		0.6668302257114819  0.22751649494588355 		Uiso   ? 		C 		-0.029975
C 1.0  		0.9847197489101045 		0.16535819430814527  0.23125426593428022 		Uiso   ? 		C 		-0.029975
C 1.0  		0.9504368277691976 		0.6658488714425909  0.22865407742061297 		Uiso   ? 		C 		-0.029975
C 1.0  		0.22385946030937057 		0.014229636898920513  0.22914161276692557 		Uiso   ? 		C 		-0.029971
C 1.0  		0.20408986168868828 		0.5093228655544653  0.22686644781746673 		Uiso   ? 		C 		-0.029971
C 1.0  		0.724006263067172 		0.013248282630029442  0.22605388890694575 		Uiso   ? 		C 		-0.029971
C 1.0  		0.7108501403632719 		0.5134936211972523  0.22751649494588355 		Uiso   ? 		C 		-0.029971
C 1.0  		0.2977752400522664 		0.4565750736015702  0.31007248025481843 		Uiso   ? 		C 		-0.134438
C 1.0  		0.2774425628319053 		0.9543670264965654  0.30958494490850585 		Uiso   ? 		C 		-0.134438
C 1.0  		0.8055497273019596 		0.4631992149165849  0.3121851334221731 		Uiso   ? 		C 		-0.134438
C 1.0  		0.772563898549739 		0.9560843964671246  0.3094224331264016 		Uiso   ? 		C 		-0.134438
C 1.0  		0.48683257795885804 		0.2826300294406281  0.31072252738323525 		Uiso   ? 		C 		-0.134437
C 1.0  		0.45302491922490923 		0.787046123650638  0.31137257451165207 		Uiso   ? 		C 		-0.134437
C 1.0  		0.9848235960440537 		0.2875368007850834  0.31137257451165207 		Uiso   ? 		C 		-0.134437
C 1.0  		0.9538748979754405 		0.787046123650638  0.3118601098579647 		Uiso   ? 		C 		-0.134437
C 1.0  		0.29245415932805785 		0.45485770363101086  0.24701790879838786 		Uiso   ? 		C 		-0.135999
C 1.0  		0.2776396386213993 		0.9573110893032386  0.2504306562225761 		Uiso   ? 		C 		-0.135999
C 1.0  		0.8112059730400751 		0.465161923454367  0.2483180030552215 		Uiso   ? 		C 		-0.135999
C 1.0  		0.7809805670584433 		0.951668302257115  0.24653037345207524 		Uiso   ? 		C 		-0.135999
C 1.0  		0.4886136462878907 		0.2806673209028459  0.2504306562225761 		Uiso   ? 		C 		-0.135998
C 1.0  		0.4536845275506971 		0.7794406280667322  0.25156823869730555 		Uiso   ? 		C 		-0.135998
C 1.0  		0.9871503159059883 		0.27944062806673214  0.25254330938993075 		Uiso   ? 		C 		-0.135998
C 1.0  		0.9565783423495862 		0.7814033366045143  0.2492930737478467 		Uiso   ? 		C 		-0.135998
C 1.0  		0.2936721490574118 		0.4555937193326791  0.33266161796730265 		Uiso   ? 		C 		-0.032303
C 1.0  		0.2737161963492618 		0.955839057899902  0.3316865472746774 		Uiso   ? 		C 		-0.032303
C 1.0  		0.7949886766815126 		0.45780176643768405  0.33331166509571947 		Uiso   ? 		C 		-0.032303
C 1.0  		0.7686820157759056 		0.956820412168793  0.33201157083888583 		Uiso   ? 		C 		-0.032303
C 1.0  		0.48800499185263246 		0.2684003925417076  0.3308739883641564 		Uiso   ? 		C 		-0.032304
C 1.0  		0.4527842757684736 		0.7755152109911679  0.3318490590567816 		Uiso   ? 		C 		-0.032304
C 1.0  		0.9858646260781655 		0.2713444553483808  0.33006142945363537 		Uiso   ? 		C 		-0.032304
C 1.0  		0.9542804521152914 		0.7772325809617273  0.33314915331361517 		Uiso   ? 		C 		-0.032304
C 1.0  		0.29398318163979154 		0.45706575073601574  0.2245912828680079 		Uiso   ? 		C 		-0.030351
C 1.0  		0.2737906018124814 		0.9585377821393524  0.22816654207430034 		Uiso   ? 		C 		-0.030351
C 1.0  		0.7948090279587954 		0.4582924435721296  0.22865407742061297 		Uiso   ? 		C 		-0.030351
C 1.0  		0.7737403287807889 		0.9546123650637881  0.2247537946501121 		Uiso   ? 		C 		-0.030351
C 1.0  		0.48872559491213885 		0.27281648675171744  0.22881658920271716 		Uiso   ? 		C 		-0.030353
C 1.0  		0.4528808054945827 		0.7706084396467126  0.2296291481132382 		Uiso   ? 		C 		-0.030353
C 1.0  		0.987424486186177 		0.2676643768400393  0.23190431306269704 		Uiso   ? 		C 		-0.030353
C 1.0  		0.9566574450089187 		0.7730618253189402  0.22735398316377936 		Uiso   ? 		C 		-0.030353
C 1.0  		0.21770174274838414 		0.15873405299313054  0.30990996847271424 		Uiso   ? 		C 		-0.134439
C 1.0  		0.1751932043823534 		0.6474484789008832  0.31316020411479834 		Uiso   ? 		C 		-0.134439
C 1.0  		0.7152811821878152 		0.1543179587831207  0.3102349920369227 		Uiso   ? 		C 		-0.134439
C 1.0  		0.6803105039523175 		0.6508832188420021  0.31072252738323525 		Uiso   ? 		C 		-0.134439
C 1.0  		0.18830630264665352 		0.4259077526987243  0.21419052881333897 		Uiso   ? 		C 		0.655515
C 1.0  		0.16092174940474352 		0.9278704612365065  0.21402801703123475 		Uiso   ? 		C 		0.655515
C 1.0  		0.6953689003702286 		0.42983316977428854  0.21630318198069357 		Uiso   ? 		C 		0.655515
C 1.0  		0.6612810468501777 		0.9268891069676154  0.21256541099229692 		Uiso   ? 		C 		0.655515
C 1.0  		0.45574405776018495 		0.15628066732090287  0.21467806415965154 		Uiso   ? 		C 		0.655517
C 1.0  		0.41947427896736317 		0.654072620215898  0.215815646634381 		Uiso   ? 		C 		0.655517
C 1.0  		0.955645519865438 		0.15480863591756625  0.21841583514804824 		Uiso   ? 		C 		0.655517
C 1.0  		0.9210012931104591 		0.6499018645731109  0.2164656937627978 		Uiso   ? 		C 		0.655517
C 1.0  		0.3335474945437452 		0.2735525024533857  0.231091754152176 		Uiso   ? 		C 		-0.029974
C 1.0  		0.30041687120236105 		0.7737978410206084  0.2299541716774466 		Uiso   ? 		C 		-0.029974
C 1.0  		0.8378959261911483 		0.2750245338567223  0.2309292423700718 		Uiso   ? 		C 		-0.029974
C 1.0  		0.8070631930840588 		0.7794406280667322  0.22735398316377936 		Uiso   ? 		C 		-0.029974
C 1.0  		0.2837492633587005 		0.42639842983316983  0.21289043455650533 		Uiso   ? 		C 		0.657284
C 1.0  		0.2550897419909936 		0.9283611383709519  0.2171157408912146 		Uiso   ? 		C 		0.657284
C 1.0  		0.7896595632827529 		0.43056918547595685  0.2167907173270062 		Uiso   ? 		C 		0.657284
C 1.0  		0.7540996658474113 		0.9246810598626105  0.21289043455650533 		Uiso   ? 		C 		0.657284
C 1.0  		0.45785086230302524 		0.2544160942100098  0.21792829980173561 		Uiso   ? 		C 		0.657289
C 1.0  		0.421784864664448 		0.7504906771344456  0.21825332336594402 		Uiso   ? 		C 		0.657289
C 1.0  		0.957489556688953 		0.24901864573110893  0.21955341762277764 		Uiso   ? 		C 		0.657289
C 1.0  		0.9254783851821758 		0.7485279685966635  0.21695322910911038 		Uiso   ? 		C 		0.657289
C 1.0  		0.04300360719637547 		0.2011776251226693  0.23352943088373906 		Uiso   ? 		C 		-0.029975
C 1.0  		0.010615711177387244 		0.6982335623159962  0.22897910098482138 		Uiso   ? 		C 		-0.029975
C 1.0  		0.5452250837988127 		0.19627085377821396  0.22637891247115416 		Uiso   ? 		C 		-0.029975
C 1.0  		0.5090625564341262 		0.6972522080471051  0.22914161276692557 		Uiso   ? 		C 		-0.029975
C 1.0  		0.044899925220220724 		0.3056918547595682  0.3315240354925732 		Uiso   ? 		C 		-0.032301
C 1.0  		0.0125120292012324 		0.802747791952895  0.33103650014626057 		Uiso   ? 		C 		-0.032301
C 1.0  		0.5463612474334854 		0.30053974484789014  0.33006142945363537 		Uiso   ? 		C 		-0.032301
C 1.0  		0.5121701588225749 		0.8071638861629049  0.3324991061851984 		Uiso   ? 		C 		-0.032301
C 1.0  		0.3533570844978138 		0.29489695780176645  0.31153508629375626 		Uiso   ? 		C 		-0.129648
C 1.0  		0.3126711739591199 		0.783856722276742  0.30958494490850585 		Uiso   ? 		C 		-0.129648
C 1.0  		0.8443954453150445 		0.28164867517173703  0.3125101569863815 		Uiso   ? 		C 		-0.129648
C 1.0  		0.8082570503818854 		0.7814033366045143  0.31056001560113106 		Uiso   ? 		C 		-0.129648
C 1.0  		0.30403619270411264 		0.3025024533856723  0.2299541716774466 		Uiso   ? 		C 		-0.029973
C 1.0  		0.274813592736727 		0.8071638861629049  0.22946663633113398 		Uiso   ? 		C 		-0.029973
C 1.0  		0.8064064802329891 		0.30299313052011784  0.23125426593428022 		Uiso   ? 		C 		-0.029973
C 1.0  		0.7684193168723281 		0.7973503434739941  0.22897910098482138 		Uiso   ? 		C 		-0.029973
C 1.0  		0.0411132792705697 		0.19357212953876352  0.3318490590567816 		Uiso   ? 		C 		-0.032225
C 1.0  		0.012790931085407686 		0.7021589793915605  0.32973640588942693 		Uiso   ? 		C 		-0.032225
C 1.0  		0.5447933890587965 		0.2009322865554465  0.3285988234146975 		Uiso   ? 		C 		-0.032225
C 1.0  		0.5105828652124715 		0.6977428851815506  0.33054896479994794 		Uiso   ? 		C 		-0.032225
C 1.0  		0.3088598867584737 		0.3078999018645731  0.3318490590567816 		Uiso   ? 		C 		-0.032225
C 1.0  		0.2741345491755246 		0.8049558390579  0.331361523710469 		Uiso   ? 		C 		-0.032225
C 1.0  		0.8086628109689799 		0.30495583905789997  0.33331166509571947 		Uiso   ? 		C 		-0.032225
C 1.0  		0.7672428866412782 		0.7988223748773308  0.331361523710469 		Uiso   ? 		C 		-0.032225
C 1.0  		0.24265885802560527 		0.04587831207065751  0.12497156043813176 		Uiso   ? 		C 		0.570230
C 1.0  		0.2105491486240811 		0.5439156035328755  0.1213963012318393 		Uiso   ? 		C 		0.570230
C 1.0  		0.7489767202581465 		0.04661432777232581  0.12237137192446451 		Uiso   ? 		C 		0.570230
C 1.0  		0.7093157399965881 		0.5461236506378803  0.12318393083498552 		Uiso   ? 		C 		0.570230
C 1.0  		0.45428072737828257 		0.15505397448478903  0.12302141905288133 		Uiso   ? 		C 		0.570223
C 1.0  		0.42173060970335385 		0.6560353287536801  0.12188383657815191 		Uiso   ? 		C 		0.570223
C 1.0  		0.9593738945167194 		0.1597154072620216  0.12480904865602756 		Uiso   ? 		C 		0.570223
C 1.0  		0.9199716656372106 		0.6503925417075564  0.12318393083498552 		Uiso   ? 		C 		0.570223
C 1.0  		0.3477477763129523 		0.2603042198233562  0.12529658400234017 		Uiso   ? 		C 		0.570233
C 1.0  		0.30899174502973026 		0.7526987242394505  0.127571748951799 		Uiso   ? 		C 		0.570233
C 1.0  		0.849178260729939 		0.2610402355250246  0.1282217960802158 		Uiso   ? 		C 		0.570233
C 1.0  		0.8160871887182211 		0.7571148184494603  0.12578411934865277 		Uiso   ? 		C 		0.570233
C 1.0  		0.24532275107008483 		0.044406280667320906  0.21776578801963142 		Uiso   ? 		C 		0.655516
C 1.0  		0.21140583273936286 		0.5392541707556429  0.21532811128806836 		Uiso   ? 		C 		0.655516
C 1.0  		0.744676553473798 		0.042688910696761534  0.21532811128806836 		Uiso   ? 		C 		0.655516
C 1.0  		0.7125427116407466 		0.5419528949950932  0.21532811128806836 		Uiso   ? 		C 		0.655516
C 1.0  		0.21118418451462165 		0.016928361138370956  0.2501056326583677 		Uiso   ? 		C 		-0.130772
C 1.0  		0.20347651005731712 		0.5080961727183514  0.2489680501836383 		Uiso   ? 		C 		-0.130772
C 1.0  		0.7193072475077229 		0.014474975466143278  0.24848051483732567 		Uiso   ? 		C 		-0.130772
C 1.0  		0.6986219782066782 		0.5085868498527969  0.2489680501836383 		Uiso   ? 		C 		-0.130772
C 1.0  		0.3456865131978176 		0.25490677134445533  0.21955341762277764 		Uiso   ? 		C 		0.655517
C 1.0  		0.30776504176698793 		0.7502453385672228  0.22004095296909026 		Uiso   ? 		C 		0.655517
C 1.0  		0.8481466250880527 		0.25515210991167814  0.21955341762277764 		Uiso   ? 		C 		0.655517
C 1.0  		0.8145581664064873 		0.7549067713444554  0.2176032762375272 		Uiso   ? 		C 		0.655517
C 1.0  		0.07373824241243815 		0.21589793915603536  0.22134104722592388 		Uiso   ? 		C 		0.655518
C 1.0  		0.04218490624584226 		0.7158979391560354  0.217440764455423 		Uiso   ? 		C 		0.655518
C 1.0  		0.5777930685442382 		0.2193326790971541  0.21597815841648518 		Uiso   ? 		C 		0.655518
C 1.0  		0.5406907380676619 		0.7205593719332679  0.21922839405856923 		Uiso   ? 		C 		0.655518
C 1.0  		0.19787067498238936 		0.1989695780176644  0.33022394123573956 		Uiso   ? 		C 		-0.032302
C 1.0  		0.1680829882466872 		0.6999509322865556  0.33038645301784375 		Uiso   ? 		C 		-0.032302
C 1.0  		0.6955070928182634 		0.1938174681059863  0.33119901192836476 		Uiso   ? 		C 		-0.032302
C 1.0  		0.6682539234360159 		0.6977428851815506  0.33022394123573956 		Uiso   ? 		C 		-0.032302
C 1.0  		0.2853078305647853 		0.31476938174681063  0.2172782526733188 		Uiso   ? 		C 		0.655517
C 1.0  		0.25714770403556375 		0.8194308145240432  0.21809081158383983 		Uiso   ? 		C 		0.655517
C 1.0  		0.7873999314761978 		0.31427870461236507  0.21890337049436082 		Uiso   ? 		C 		0.655517
C 1.0  		0.749870603455718 		0.809126594700687  0.217440764455423 		Uiso   ? 		C 		0.655517
C 1.0  		0.06982150550505123 		0.20976447497546616  0.12919686677284103 		Uiso   ? 		C 		0.570213
C 1.0  		0.044496207209637983 		0.7107458292443573  0.12529658400234017 		Uiso   ? 		C 		0.570213
C 1.0  		0.5817077972829874 		0.21908734052993134  0.12415900152761075 		Uiso   ? 		C 		0.570213
C 1.0  		0.5380161233211562 		0.7139352306182533  0.1264341664770696 		Uiso   ? 		C 		0.570213
C 1.0  		0.17800601157689394 		0.4180569185475957  0.12204634836025612 		Uiso   ? 		C 		0.570244
C 1.0  		0.15783085881636055 		0.9229636898920511  0.12009620697500568 		Uiso   ? 		C 		0.570244
C 1.0  		0.6949023514966589 		0.42762512266928365  0.12253388370656872 		Uiso   ? 		C 		0.570244
C 1.0  		0.6546105925369528 		0.9224730127576055  0.12009620697500568 		Uiso   ? 		C 		0.570244
C 1.0  		0.278431586928678 		0.3056918547595682  0.12383397796340234 		Uiso   ? 		C 		0.570235
C 1.0  		0.25705587150556736 		0.8132973503434741  0.12675919004127797 		Uiso   ? 		C 		0.570235
C 1.0  		0.7928678149582079 		0.3150147203140334  0.1264341664770696 		Uiso   ? 		C 		0.570235
C 1.0  		0.7491982652592661 		0.8022571148184495  0.12545909578444436 		Uiso   ? 		C 		0.570235
C 1.0  		0.04618830407551873 		0.2963689892051031  0.23255436019111383 		Uiso   ? 		C 		-0.030349
C 1.0  		0.01605204159640833 		0.8064278704612365  0.22670393603536254 		Uiso   ? 		C 		-0.030349
C 1.0  		0.5478004453838603 		0.30299313052011784  0.22865407742061297 		Uiso   ? 		C 		-0.030349
C 1.0  		0.5121855777207137 		0.8042198233562317  0.22816654207430034 		Uiso   ? 		C 		-0.030349
C 1.0  		0.19569545507436892 		0.19504416094210011  0.23287938375532224 		Uiso   ? 		C 		-0.030351
C 1.0  		0.16654525240156515 		0.6960255152109913  0.23304189553742644 		Uiso   ? 		C 		-0.030351
C 1.0  		0.6958992362286133 		0.19332679097154076  0.2297916598953424 		Uiso   ? 		C 		-0.030351
C 1.0  		0.6599404900181713 		0.6925907752698724  0.23190431306269704 		Uiso   ? 		C 		-0.030351
C 1.0  		0.04284407456791004 		0.1876840039254171  0.25351838008255595 		Uiso   ? 		C 		-0.130773
C 1.0  		0.00977914315635714 		0.6889106967615309  0.25075567978678454 		Uiso   ? 		C 		-0.130773
C 1.0  		0.5452954729247568 		0.1862119725220805  0.2479929794910131 		Uiso   ? 		C 		-0.130773
C 1.0  		0.5095250889704203 		0.686702649656526  0.2494555855299509 		Uiso   ? 		C 		-0.130773
C 1.0  		0.3173571228678066 		0.014229636898920513  0.22767900672798777 		Uiso   ? 		C 		-0.030349
C 1.0  		0.29460388508687657 		0.5076054955839058  0.22670393603536254 		Uiso   ? 		C 		-0.030349
C 1.0  		0.8186716423232696 		0.010058881256133466  0.2237787239574869 		Uiso   ? 		C 		-0.030349
C 1.0  		0.7954297314058804 		0.5088321884200196  0.22897910098482138 		Uiso   ? 		C 		-0.030349
C 1.0  		0.22593406533825855 		0.1658488714425908  0.23206682484480123 		Uiso   ? 		C 		-0.030350
C 1.0  		0.19397987222792426 		0.664622178606477  0.23222933662690545 		Uiso   ? 		C 		-0.030350
C 1.0  		0.7300458698665016 		0.16854759568204125  0.23125426593428022 		Uiso   ? 		C 		-0.030350
C 1.0  		0.6908581438432634 		0.6656035328753681  0.23174180128059282 		Uiso   ? 		C 		-0.030350
C 1.0  		0.31607344120862135 		0.012512266928361139  0.33201157083888583 		Uiso   ? 		C 		-0.032301
C 1.0  		0.299410152074461 		0.509568204121688  0.3324991061851984 		Uiso   ? 		C 		-0.032301
C 1.0  		0.8137929780411034 		0.011776251226692838  0.33201157083888583 		Uiso   ? 		C 		-0.032301
C 1.0  		0.7981680299135797 		0.5100588812561335  0.3323365944030942 		Uiso   ? 		C 		-0.032301
C 1.0  		0.043409773379316036 		0.3231108930323847  0.31332271589690247 		Uiso   ? 		C 		-0.134439
C 1.0  		0.012148034559685383 		0.8147693817468107  0.3112100627295479 		Uiso   ? 		C 		-0.134439
C 1.0  		0.5446170414066438 		0.3157507360157017  0.31104755094744363 		Uiso   ? 		C 		-0.134439
C 1.0  		0.5135302541136175 		0.8179587831207067  0.3108850391653395 		Uiso   ? 		C 		-0.134439
C 1.0  		0.23052113227345955 		0.17247301275760551  0.33022394123573956 		Uiso   ? 		C 		-0.032301
C 1.0  		0.19405427769114394 		0.6673209028459275  0.331361523710469 		Uiso   ? 		C 		-0.032301
C 1.0  		0.7246175377141576 		0.1636408243375859  0.3318490590567816 		Uiso   ? 		C 		-0.032301
C 1.0  		0.6950751916310038 		0.6651128557409225  0.33103650014626057 		Uiso   ? 		C 		-0.032301
C 1.0  		0.28013484550030493 		0.4200196270853779  0.1209087658855267 		Uiso   ? 		C 		0.570471
C 1.0  		0.25541619347151223 		0.9268891069676154  0.12415900152761075 		Uiso   ? 		C 		0.570471
C 1.0  		0.7939423030003248 		0.43105986261040236  0.12432151330971494 		Uiso   ? 		C 		0.570471
C 1.0  		0.7538764494577525 		0.9165848871442592  0.11944615984658886 		Uiso   ? 		C 		0.570471
C 1.0  		0.0647671744295695 		0.3025024533856723  0.1278967725160074 		Uiso   ? 		C 		0.570464
C 1.0  		0.04334989950815488 		0.8078999018645732  0.12285890727077713 		Uiso   ? 		C 		0.570464
C 1.0  		0.5812887980057613 		0.31599607458292445  0.12318393083498552 		Uiso   ? 		C 		0.570464
C 1.0  		0.5393299275099082 		0.8113346418056919  0.12399648974550655 		Uiso   ? 		C 		0.570464
C 1.0  		0.18127396508414073 		0.20657507360157018  0.12854681964442422 		Uiso   ? 		C 		0.570472
C 1.0  		0.16163976666039656 		0.7163886162904809  0.12659667825917378 		Uiso   ? 		C 		0.570472
C 1.0  		0.6919422671327229 		0.21516192345436705  0.12594663113075696 		Uiso   ? 		C 		0.570472
C 1.0  		0.6490348799915917 		0.709028459273798  0.12675919004127797 		Uiso   ? 		C 		0.570472
C 1.0  		0.07316372684402213 		0.3120706575073602  0.21874085871225663 		Uiso   ? 		C 		0.657287
C 1.0  		0.04554254648295203 		0.8152600588812562  0.2161406701985894 		Uiso   ? 		C 		0.657287
C 1.0  		0.5795559945397831 		0.31550539744847894  0.217440764455423 		Uiso   ? 		C 		0.657287
C 1.0  		0.5430341697296622 		0.8174681059862611  0.21630318198069357 		Uiso   ? 		C 		0.657287
C 1.0  		0.187521438190738 		0.21736997055937196  0.2223161179185491 		Uiso   ? 		C 		0.657284
C 1.0  		0.15653989415720915 		0.7163886162904809  0.22101602366171547 		Uiso   ? 		C 		0.657284
C 1.0  		0.6891557037619691 		0.2163886162904809  0.21939090584067344 		Uiso   ? 		C 		0.657284
C 1.0  		0.6481694823429216 		0.7119725220804711  0.22020346475119446 		Uiso   ? 		C 		0.657284
C 1.0  		0.33627047737692717 		0.044406280667320906  0.21565313485227677 		Uiso   ? 		C 		0.657285
C 1.0  		0.30851590498755666 		0.5392541707556429  0.21484057594175576 		Uiso   ? 		C 		0.657285
C 1.0  		0.8414668796062237 		0.039499509322865556  0.21191536386388013 		Uiso   ? 		C 		0.657285
C 1.0  		0.8052386603117059 		0.5394995093228656  0.217440764455423 		Uiso   ? 		C 		0.657285
C 1.0  		0.31655326318019666 		0.31648675171737  0.2492930737478467 		Uiso   ? 		C 		-0.130772
C 1.0  		0.28659464125516565 		0.8196761530912661  0.2497806090941593 		Uiso   ? 		C 		-0.130772
C 1.0  		0.8185226937653347 		0.3157507360157017  0.2514057269152013 		Uiso   ? 		C 		-0.130772
C 1.0  		0.780658200730948 		0.8103532875368008  0.2504306562225761 		Uiso   ? 		C 		-0.130772
C 1.0  		0.24918380248295552 		0.15922473012757607  0.21971592940488185 		Uiso   ? 		C 		0.657285
C 1.0  		0.21222626659554295 		0.653091265947007  0.21987844118698605 		Uiso   ? 		C 		0.657285
C 1.0  		0.745218800712514 		0.15554465161923456  0.21809081158383983 		Uiso   ? 		C 		0.657285
C 1.0  		0.7130038480514923 		0.6567713444553485  0.21971592940488185 		Uiso   ? 		C 		0.657285
C 1.0  		0.18138860273586382 		0.18130520117762514  0.31104755094744363 		Uiso   ? 		C 		-0.134439
C 1.0  		0.15263925700679834 		0.68351324828263  0.31153508629375626 		Uiso   ? 		C 		-0.134439
C 1.0  		0.6826635708616606 		0.18130520117762514  0.3108850391653395 		Uiso   ? 		C 		-0.134439
C 1.0  		0.653064246382064 		0.68351324828263  0.31104755094744363 		Uiso   ? 		C 		-0.134439
C 1.0  		0.4577194784433627 		0.2524533856722277  0.12464653687392335 		Uiso   ? 		C 		0.570450
C 1.0  		0.4226107109834519 		0.7517173699705595  0.12529658400234017 		Uiso   ? 		C 		0.570450
C 1.0  		0.959379884614759 		0.25662414131501476  0.1274092371696948 		Uiso   ? 		C 		0.570450
C 1.0  		0.9248341957545269 		0.753189401373896  0.12480904865602756 		Uiso   ? 		C 		0.570450
C 1.0  		0.34015236015076067 		0.0436702649656526  0.12334644261708973 		Uiso   ? 		C 		0.570478
C 1.0  		0.30664501229716545 		0.5414622178606477  0.12123378944973509 		Uiso   ? 		C 		0.570478
C 1.0  		0.8475501228882426 		0.04784102060843965  0.1209087658855267 		Uiso   ? 		C 		0.570478
C 1.0  		0.801446601899231 		0.5399901864573111  0.12350895439919393 		Uiso   ? 		C 		0.570478
C 1.0  		0.24336533508889946 		0.16118743866535823  0.127571748951799 		Uiso   ? 		C 		0.570473
C 1.0  		0.21436193517389712 		0.6611874386653582  0.1269217018233822 		Uiso   ? 		C 		0.570473
C 1.0  		0.7446228761479196 		0.15775269872423947  0.12480904865602756 		Uiso   ? 		C 		0.570473
C 1.0  		0.7163159468608965 		0.6633954857703632  0.12545909578444436 		Uiso   ? 		C 		0.570473
H 1.0  		0.33158476932335756 		0.26962708537782143  0.8801638118763611 		Uiso   ? 		H 		0.033848
H 1.0  		0.31951055529303596 		0.779685966633955  0.8821139532616113 		Uiso   ? 		H 		0.033848
H 1.0  		0.8396615756220421 		0.2760058881256134  0.8787012058374232 		Uiso   ? 		H 		0.033848
H 1.0  		0.7861167242286065 		0.755397448478901  0.8803263236584652 		Uiso   ? 		H 		0.033848
H 1.0  		0.29956509073043525 		0.3007850834151129  0.8817889296974031 		Uiso   ? 		H 		0.032693
H 1.0  		0.26514207219647745 		0.7975956820412169  0.8821139532616113 		Uiso   ? 		H 		0.032693
H 1.0  		0.7959680999388163 		0.29784102060843964  0.883414047518445 		Uiso   ? 		H 		0.032693
H 1.0  		0.7681672708550291 		0.8015210991167812  0.8806513472226735 		Uiso   ? 		H 		0.032693
H 1.0  		0.19726603688440658 		0.1994602551521099  0.8788637176195274 		Uiso   ? 		H 		0.031401
H 1.0  		0.1693009779760411 		0.7006869479882237  0.8803263236584652 		Uiso   ? 		H 		0.031401
H 1.0  		0.7096758559323553 		0.2102551521099117  0.8803263236584652 		Uiso   ? 		H 		0.031401
H 1.0  		0.6641025675781067 		0.6992149165848872  0.8803263236584652 		Uiso   ? 		H 		0.031401
H 1.0  		0.23513903700493838 		0.1732090284592738  0.8816264179152987 		Uiso   ? 		H 		0.030557
H 1.0  		0.20547402059551043 		0.6744357212953878  0.8814639061331947 		Uiso   ? 		H 		0.030557
H 1.0  		0.7416693939251124 		0.1739450441609421  0.8811388825689861 		Uiso   ? 		H 		0.030557
H 1.0  		0.6867684635779098 		0.6552993130520118  0.8790262294016316 		Uiso   ? 		H 		0.030557
H 1.0  		0.14456129543768267 		0.25809617271835134  0.9281047875971008 		Uiso   ? 		H 		0.423660
H 1.0  		0.11153659621463319 		0.7313542688910697  0.9285923229434134 		Uiso   ? 		H 		0.423660
H 1.0  		0.6320884734873776 		0.22890088321884203  0.9238794812623914 		Uiso   ? 		H 		0.423660
H 1.0  		0.6258964106123056 		0.7315996074582926  0.9237169694802873 		Uiso   ? 		H 		0.423660
H 1.0  		0.2358421441819204 		0.3297350343473995  0.9302174407644553 		Uiso   ? 		H 		0.392132
H 1.0  		0.20516693553465845 		0.8412659470068695  0.9269672051223713 		Uiso   ? 		H 		0.392132
H 1.0  		0.7377780479433056 		0.35230618253189405  0.9287548347255176 		Uiso   ? 		H 		0.392132
H 1.0  		0.6978811214214244 		0.829244357212954  0.9269672051223713 		Uiso   ? 		H 		0.392132
H 1.0  		0.18883183808530385 		0.43375858684985286  0.7425163324341014 		Uiso   ? 		H 		0.113903
H 1.0  		0.15088153702683416 		0.9413640824337587  0.7434914031267267 		Uiso   ? 		H 		0.113903
H 1.0  		0.6904004117267037 		0.4317958783120707  0.7410537263951635 		Uiso   ? 		H 		0.113903
H 1.0  		0.6512254155741295 		0.9433267909715408  0.7441414502551434 		Uiso   ? 		H 		0.113903
H 1.0  		0.46170531157476696 		0.14057899901864573  0.7387785614457048 		Uiso   ? 		H 		0.113921
H 1.0  		0.43301563326961945 		0.6246319921491659  0.7438164266909351 		Uiso   ? 		H 		0.113921
H 1.0  		0.9629300066688715 		0.13665358194308147  0.7389410732278089 		Uiso   ? 		H 		0.113921
H 1.0  		0.927913071738957 		0.6420510304219824  0.745441544511977 		Uiso   ? 		H 		0.113921
H 1.0  		0.31008049669955484 		0.4467615309126595  0.7446289856014561 		Uiso   ? 		H 		0.110459
H 1.0  		0.2739622178606474 		0.932531894013739  0.7415412617414762 		Uiso   ? 		H 		0.110459
H 1.0  		0.8003674166610013 		0.4349852796859667  0.7428413559983098 		Uiso   ? 		H 		0.110459
H 1.0  		0.7583602813020938 		0.9327772325809618  0.7434914031267267 		Uiso   ? 		H 		0.110459
H 1.0  		0.46521710638539227 		0.28827281648675174  0.742191308869893 		Uiso   ? 		H 		0.110391
H 1.0  		0.4333004564360864 		0.776496565260059  0.7425163324341014 		Uiso   ? 		H 		0.110391
H 1.0  		0.966759539426627 		0.28115799803729147  0.7404036792667468 		Uiso   ? 		H 		0.110391
H 1.0  		0.9274384213750885 		0.7698724239450442  0.7431663795625183 		Uiso   ? 		H 		0.110391
H 1.0  		0.1442515557572296 		0.3645731108930324  0.9255045990834335 		Uiso   ? 		H 		0.408039
H 1.0  		0.10934524214176272 		0.8319430814524044  0.931517535021289 		Uiso   ? 		H 		0.408039
H 1.0  		0.6242844413433333 		0.33611383709519144  0.9263171579939545 		Uiso   ? 		H 		0.408039
H 1.0  		0.6245262056623263 		0.8444553483807655  0.9316800468033931 		Uiso   ? 		H 		0.408039
H 1.0  		0.0693402185921799 		0.18670264965652603  0.7404036792667468 		Uiso   ? 		H 		0.113942
H 1.0  		0.03550842742670374 		0.6923454367026497  0.745279032729873 		Uiso   ? 		H 		0.113942
H 1.0  		0.567436479936873 		0.1884200196270854  0.741378749959372 		Uiso   ? 		H 		0.113942
H 1.0  		0.5394761182246202 		0.6786064769381748  0.746254103422498 		Uiso   ? 		H 		0.113942
H 1.0  		0.2414281384255874 		0.03066732090284593  0.7399161439204341 		Uiso   ? 		H 		0.113956
H 1.0  		0.1982774188005455 		0.5304219823356232  0.743003867780414 		Uiso   ? 		H 		0.113956
H 1.0  		0.7387005616199143 		0.03753680078508342  0.7382910260993922 		Uiso   ? 		H 		0.113956
H 1.0  		0.7042185565208757 		0.5287046123650638  0.7384535378814963 		Uiso   ? 		H 		0.113956
H 1.0  		0.32267537693304466 		0.34445534838076547  0.7431663795625183 		Uiso   ? 		H 		0.113988
H 1.0  		0.2723990566820714 		0.821884200196271  0.7381285143172879 		Uiso   ? 		H 		0.113988
H 1.0  		0.8183577830819194 		0.3370951913640825  0.743003867780414 		Uiso   ? 		H 		0.113988
H 1.0  		0.7849992461547635 		0.8402845927379784  0.746091591640394 		Uiso   ? 		H 		0.113988
H 1.0  		0.07129014512615588 		0.3316977428851816  0.7410537263951635 		Uiso   ? 		H 		0.110394
H 1.0  		0.03545206107335025 		0.8248282630029442  0.745279032729873 		Uiso   ? 		H 		0.110394
H 1.0  		0.5707927584563084 		0.33537782139352307  0.7425163324341014 		Uiso   ? 		H 		0.110394
H 1.0  		0.5345839743972051 		0.8451913640824338  0.7490168037182695 		Uiso   ? 		H 		0.110394
H 1.0  		0.1656988499845894 		0.18817468105986263  0.7397536321383299 		Uiso   ? 		H 		0.110405
H 1.0  		0.1468248059500179 		0.6982335623159962  0.7386160496636005 		Uiso   ? 		H 		0.110405
H 1.0  		0.6782313393588123 		0.1992149165848872  0.7366659082783502 		Uiso   ? 		H 		0.110405
H 1.0  		0.6347829978808919 		0.6881746810598627  0.7392660967920174 		Uiso   ? 		H 		0.110405
H 1.0  		0.2976594127222383 		0.14057899901864573  0.9274547404686839 		Uiso   ? 		H 		0.422858
H 1.0  		0.23859170761898746 		0.6263493621197253  0.9269672051223713 		Uiso   ? 		H 		0.422858
H 1.0  		0.7961243659045912 		0.11923454367026497  0.9308674878928721 		Uiso   ? 		H 		0.422858
H 1.0  		0.7380340070742587 		0.5942100098135428  0.9269672051223713 		Uiso   ? 		H 		0.422858
H 1.0  		0.34622957892686634 		0.03287536800785084  0.7425163324341014 		Uiso   ? 		H 		0.110412
H 1.0  		0.3056616415183338 		0.5331207065750737  0.7426788442162057 		Uiso   ? 		H 		0.110412
H 1.0  		0.8540898742006424 		0.026496565260058884  0.745279032729873 		Uiso   ? 		H 		0.110412
H 1.0  		0.8184200363096907 		0.5348380765456331  0.7384535378814963 		Uiso   ? 		H 		0.110412
H 1.0  		0.21705622601093455 		0.13321884200196274  0.7415412617414762 		Uiso   ? 		H 		0.110462
H 1.0  		0.17589706123392038 		0.6246319921491659  0.7464166152046022 		Uiso   ? 		H 		0.110462
H 1.0  		0.721649998310886 		0.13518155053974487  0.7412162381772678 		Uiso   ? 		H 		0.110462
H 1.0  		0.6867208795736925 		0.6339548577036311  0.7379660025351839 		Uiso   ? 		H 		0.110462
H 1.0  		0.4053807742146976 		0.2276741903827282  0.9242045048265999 		Uiso   ? 		H 		0.412072
H 1.0  		0.3532007153084174 		0.706820412168793  0.9289173465076218 		Uiso   ? 		H 		0.412072
H 1.0  		0.8691802636852625 		0.2185966633954858  0.925179575519225 		Uiso   ? 		H 		0.412072
H 1.0  		0.8287356774618413 		0.695289499509323  0.9281047875971008 		Uiso   ? 		H 		0.412072
H 1.0  		0.358092247092743 		0.4084887144259078  0.8283225533851204 		Uiso   ? 		H 		0.034780
H 1.0  		0.32390585567794533 		0.9040726202158981  0.8164591932915136 		Uiso   ? 		H 		0.034780
H 1.0  		0.859897447853303 		0.4052993130520118  0.8318978125914128 		Uiso   ? 		H 		0.034780
H 1.0  		0.8241927558287978 		0.9067713444553485  0.8288100887314329 		Uiso   ? 		H 		0.034780
H 1.0  		0.09651128661675497 		0.4084887144259078  0.8305977183345792 		Uiso   ? 		H 		0.035221
H 1.0  		0.06847182224516979 		0.9070166830225712  0.8372607014008515 		Uiso   ? 		H 		0.035221
H 1.0  		0.5987173443210532 		0.40652600588812565  0.8307602301166834 		Uiso   ? 		H 		0.035221
H 1.0  		0.5656282804779731 		0.9089793915603533  0.8314102772451002 		Uiso   ? 		H 		0.035221
H 1.0  		0.35936660317545044 		0.27674190382728164  0.7381285143172879 		Uiso   ? 		H 		0.113909
H 1.0  		0.34077074575834304 		0.7877821393523062  0.7423538206519972 		Uiso   ? 		H 		0.113909
H 1.0  		0.8594390004700323 		0.27306182531894013  0.7399161439204341 		Uiso   ? 		H 		0.113909
H 1.0  		0.8262118474025388 		0.7782139352306183  0.7418662853056847 		Uiso   ? 		H 		0.113909
H 1.0  		0.09502259971714638 		0.14499509322865556  0.8219845938830564 		Uiso   ? 		H 		0.032478
H 1.0  		0.06610031063011435 		0.6430323846908734  0.8309227418987877 		Uiso   ? 		H 		0.032478
H 1.0  		0.6007271103183165 		0.14450441609421003  0.8195469171514934 		Uiso   ? 		H 		0.032478
H 1.0  		0.5656270563917941 		0.6454857703631011  0.8185718464588682 		Uiso   ? 		H 		0.032478
H 1.0  		0.43824233006785224 		0.3265456329735035  0.8234471999219943 		Uiso   ? 		H 		0.032236
H 1.0  		0.4133661535792319 		0.8263002944062807  0.8201969642799102 		Uiso   ? 		H 		0.032236
H 1.0  		0.9357406586793131 		0.3240922473012758  0.824747294178828 		Uiso   ? 		H 		0.032236
H 1.0  		0.896005272954535 		0.8209028459273798  0.8322228361556213 		Uiso   ? 		H 		0.032236
H 1.0  		0.40561341940445594 		0.13591756624141318  0.9269672051223713 		Uiso   ? 		H 		0.411985
H 1.0  		0.3455998866834019 		0.6027968596663396  0.9308674878928721 		Uiso   ? 		H 		0.411985
H 1.0  		0.906870960463476 		0.13248282630029443  0.9269672051223713 		Uiso   ? 		H 		0.411985
H 1.0  		0.8300790609528184 		0.6010794896957803  0.9289173465076218 		Uiso   ? 		H 		0.411985
H 1.0  		0.4373757083330031 		0.06599607458292445  0.8283225533851204 		Uiso   ? 		H 		0.034040
H 1.0  		0.40507763667537344 		0.5628066732090286  0.8328728832840381 		Uiso   ? 		H 		0.034040
H 1.0  		0.9369748513892646 		0.06476938174681061  0.8307602301166834 		Uiso   ? 		H 		0.034040
H 1.0  		0.901653589241721 		0.5640333660451423  0.824747294178828 		Uiso   ? 		H 		0.034040
H 1.0  		0.1726730194723542 		0.06697742885181551  0.8292976240777455 		Uiso   ? 		H 		0.034740
H 1.0  		0.1441931468273645 		0.5684494602551522  0.8288100887314329 		Uiso   ? 		H 		0.034740
H 1.0  		0.6749534826398721 		0.06771344455348383  0.8268599473461825 		Uiso   ? 		H 		0.034740
H 1.0  		0.636605013665139 		0.5566732090284594  0.8271849709103909 		Uiso   ? 		H 		0.034740
H 1.0  		0.2345277623579528 		0.022816486751717373  0.8847141417752786 		Uiso   ? 		H 		0.035075
H 1.0  		0.20032796021365396 		0.5277232580961727  0.8871518185068417 		Uiso   ? 		H 		0.035075
H 1.0  		0.7419168115620465 		0.025269872423945045  0.8873143302889459 		Uiso   ? 		H 		0.035075
H 1.0  		0.6876225274814644 		0.5125122669283612  0.8806513472226735 		Uiso   ? 		H 		0.035075
H 1.0  		0.481004104129487 		0.17492639842983318  0.8819514414795071 		Uiso   ? 		H 		0.029898
H 1.0  		0.45003998716273486 		0.6773797841020609  0.8832515357363407 		Uiso   ? 		H 		0.029898
H 1.0  		0.982391020879532 		0.16707556427870465  0.882601488607924 		Uiso   ? 		H 		0.029898
H 1.0  		0.9397396960929753 		0.6695289499509324  0.8856892124679039 		Uiso   ? 		H 		0.029898
H 1.0  		0.05122520808422373 		0.20019627085377822  0.8795137647479442 		Uiso   ? 		H 		0.031390
H 1.0  		0.024055157698584295 		0.7085377821393524  0.8884519127636753 		Uiso   ? 		H 		0.031390
H 1.0  		0.5524673302451049 		0.1997055937193327  0.882601488607924 		Uiso   ? 		H 		0.031390
H 1.0  		0.5193695528686364 		0.7004416094210011  0.8813013943510905 		Uiso   ? 		H 		0.031390
H 1.0  		0.19522812211834045 		0.4499509322865555  0.8853641889036955 		Uiso   ? 		H 		0.033417
H 1.0  		0.171486816362466 		0.9460255152109912  0.8878018656352585 		Uiso   ? 		H 		0.033417
H 1.0  		0.6974824446856933 		0.4455348380765457  0.885039165339487 		Uiso   ? 		H 		0.033417
H 1.0  		0.6687156718898511 		0.9443081452404319  0.8881268891994669 		Uiso   ? 		H 		0.033417
H 1.0  		0.2995784326441887 		0.4470068694798823  0.8881268891994669 		Uiso   ? 		H 		0.034585
H 1.0  		0.2742202883838598 		0.9474975466143278  0.884226606428966 		Uiso   ? 		H 		0.034585
H 1.0  		0.8016135551591582 		0.447252208047105  0.8856892124679039 		Uiso   ? 		H 		0.034585
H 1.0  		0.7677710422916557 		0.9447988223748774  0.885039165339487 		Uiso   ? 		H 		0.034585
H 1.0  		0.05035708700020469 		0.2983316977428852  0.8829265121721324 		Uiso   ? 		H 		0.033278
H 1.0  		0.022034738815042643 		0.8069185475956822  0.8878018656352585 		Uiso   ? 		H 		0.033278
H 1.0  		0.5521837311648169 		0.31133464180569187  0.8809763707868821 		Uiso   ? 		H 		0.033278
H 1.0  		0.51363818640059 		0.7973503434739941  0.8832515357363407 		Uiso   ? 		H 		0.033278
H 1.0  		0.4821208325287451 		0.2693817468105987  0.8806513472226735 		Uiso   ? 		H 		0.032103
H 1.0  		0.4558208769878886 		0.763738959764475  0.8800013000942568 		Uiso   ? 		H 		0.032103
H 1.0  		0.981604010623483 		0.2632482826300295  0.8830890239542366 		Uiso   ? 		H 		0.032103
H 1.0  		0.937169609339256 		0.7612855740922474  0.8852016771215913 		Uiso   ? 		H 		0.032103
H 1.0  		0.33735105874070515 		0.02404317958783121  0.885039165339487 		Uiso   ? 		H 		0.034997
H 1.0  		0.3069084608753278 		0.5215897939156036  0.8856892124679039 		Uiso   ? 		H 		0.034997
H 1.0  		0.8433491748574784 		0.021589793915603533  0.8829265121721324 		Uiso   ? 		H 		0.034997
H 1.0  		0.7960450912058894 		0.5164376840039254  0.884226606428966 		Uiso   ? 		H 		0.034997
H 1.0  		0.29975212567674026 		0.27183513248282637  0.7928949848864041 		Uiso   ? 		H 		0.139226
H 1.0  		0.27232601293652625 		0.7715897939156036  0.7956576851821756 		Uiso   ? 		H 		0.139226
H 1.0  		0.8112616929424652 		0.2787046123650638  0.7987454090421555 		Uiso   ? 		H 		0.139226
H 1.0  		0.7684025706643887 		0.7701177625122669  0.7977703383495303 		Uiso   ? 		H 		0.139226
H 1.0  		0.20041556995913146 		0.9877330716388617  0.8021581564663437 		Uiso   ? 		H 		0.139363
H 1.0  		0.220658422818134 		0.49018645731108934  0.8013455975558228 		Uiso   ? 		H 		0.139363
H 1.0  		0.7157306063668327 		0.9847890088321886  0.7998829915168849 		Uiso   ? 		H 		0.139363
H 1.0  		0.7214755556037495 		0.48969578017664384  0.7987454090421555 		Uiso   ? 		H 		0.139363
H 1.0  		0.017103387736700046 		0.19995093228655544  0.7945201027074462 		Uiso   ? 		H 		0.139337
H 1.0  		0.9839224913636233 		0.6962708537782141  0.8005330386453018 		Uiso   ? 		H 		0.139337
H 1.0  		0.5145950109834103 		0.20215897939156036  0.7930574966685084 		Uiso   ? 		H 		0.139337
H 1.0  		0.4857471273595979 		0.7028949950932287  0.7930574966685084 		Uiso   ? 		H 		0.139337
H 1.0  		0.22559151410076372 		0.19406280667320905  0.7956576851821756 		Uiso   ? 		H 		0.139312
H 1.0  		0.19084204408628724 		0.6923454367026497  0.7976078265674261 		Uiso   ? 		H 		0.139312
H 1.0  		0.7328337605470558 		0.1974975466143278  0.7935450320148211 		Uiso   ? 		H 		0.139312
H 1.0  		0.7015016326014811 		0.6992149165848872  0.791107355283258 		Uiso   ? 		H 		0.139312
H 1.0  		0.29548180615896735 		0.9857703631010796  0.8005330386453018 		Uiso   ? 		H 		0.139788
H 1.0  		0.2900436396106779 		0.48233562315996076  0.8019956446842395 		Uiso   ? 		H 		0.139788
H 1.0  		0.7923272318093908 		0.986261040235525  0.8028082035947607 		Uiso   ? 		H 		0.139788
H 1.0  		0.7937130276968785 		0.4815996074582925  0.8003705268631975 		Uiso   ? 		H 		0.139788
H 1.0  		0.01866120526819992 		0.2676643768400393  0.7938700555790293 		Uiso   ? 		H 		0.139400
H 1.0  		0.9834579162508177 		0.7782139352306183  0.8018331329021354 		Uiso   ? 		H 		0.139400
H 1.0  		0.5182053780966563 		0.2735525024533857  0.795170149835863 		Uiso   ? 		H 		0.139400
H 1.0  		0.4888735185324977 		0.7686457311089304  0.7966327558748009 		Uiso   ? 		H 		0.139400
H 1.0  		0.2909624393222355 		0.9865063788027478  0.422043098124614 		Uiso   ? 		H 		0.134021
H 1.0  		0.2852547996898702 		0.4838076545632974  0.4222056099067182 		Uiso   ? 		H 		0.134021
H 1.0  		0.7894508440772785 		0.9877330716388617  0.42301816881723925 		Uiso   ? 		H 		0.134021
H 1.0  		0.7909834427225677 		0.48209028459273806  0.4207430038677804 		Uiso   ? 		H 		0.134021
H 1.0  		0.3002947785113024 		0.9830716388616291  0.6396463743621412 		Uiso   ? 		H 		0.133595
H 1.0  		0.29169533224868577 		0.48478900883218845  0.6393213507979328 		Uiso   ? 		H 		0.133595
H 1.0  		0.7831416953781255 		0.9887144259077528  0.6399713979263496 		Uiso   ? 		H 		0.133595
H 1.0  		0.7858989891175192 		0.4791462217860648  0.6425715864400169 		Uiso   ? 		H 		0.133595
H 1.0  		0.015252576732686596 		0.2659470068694799  0.42399323950986445 		Uiso   ? 		H 		0.134021
H 1.0  		0.9835303135453995 		0.7745338567222768  0.42139305099619717 		Uiso   ? 		H 		0.134021
H 1.0  		0.5162098069113531 		0.26913640824337587  0.42334319238144763 		Uiso   ? 		H 		0.134021
H 1.0  		0.483567856706428 		0.7639842983316978  0.4270809633698443 		Uiso   ? 		H 		0.134021
H 1.0  		0.014121722337216286 		0.28238469087340534  0.6368836740663698 		Uiso   ? 		H 		0.133603
H 1.0  		0.9827788726896152 		0.7760058881256133  0.6409464686189749 		Uiso   ? 		H 		0.133603
H 1.0  		0.5168077396445854 		0.27330716388616294  0.6415965157473916 		Uiso   ? 		H 		0.133603
H 1.0  		0.48332452422251737 		0.7698724239450442  0.6425715864400169 		Uiso   ? 		H 		0.133603
H 1.0  		0.13326748952228096 		0.44332679097154076  0.4971235414567556 		Uiso   ? 		H 		0.105463
H 1.0  		0.14464141573595085 		0.9798822374877332  0.4980986121493808 		Uiso   ? 		H 		0.105463
H 1.0  		0.6424309016906568 		0.4484789008832189  0.49728605323885977 		Uiso   ? 		H 		0.105463
H 1.0  		0.6407092599304248 		0.9766928361138372  0.5002112653167354 		Uiso   ? 		H 		0.105463
H 1.0  		0.15817964100701198 		0.447252208047105  0.7196021711574089 		Uiso   ? 		H 		0.106676
H 1.0  		0.15351792775347417 		0.9823356231599607  0.7220398478889718 		Uiso   ? 		H 		0.106676
H 1.0  		0.6550646179871017 		0.44357212953876357  0.7194396593753046 		Uiso   ? 		H 		0.106676
H 1.0  		0.6553231285140342 		0.9791462217860649  0.7189521240289921 		Uiso   ? 		H 		0.106676
H 1.0  		0.4968353159914867 		0.12414131501472032  0.4979361003672766 		Uiso   ? 		H 		0.105464
H 1.0  		0.4620442864787063 		0.6202158979391561  0.5010238242272564 		Uiso   ? 		H 		0.105464
H 1.0  		0.9986009654223805 		0.1251226692836114  0.5018363831377775 		Uiso   ? 		H 		0.105464
H 1.0  		0.9658276313577929 		0.6180078508341512  0.5000487535346312 		Uiso   ? 		H 		0.105464
H 1.0  		0.49276306279291 		0.11727183513248284  0.7166769590795332 		Uiso   ? 		H 		0.106662
H 1.0  		0.4695539978404365 		0.6165358194308146  0.7166769590795332 		Uiso   ? 		H 		0.106662
H 1.0  		0.9958278127811278 		0.11702649656526007  0.718139565118471 		Uiso   ? 		H 		0.106662
H 1.0  		0.9621602514402299 		0.6251226692836115  0.71732700620795 		Uiso   ? 		H 		0.106662
H 1.0  		0.35203310183437747 		0.47669283611383717  0.4993987064062144 		Uiso   ? 		H 		0.106793
H 1.0  		0.3228815718517731 		0.9474975466143278  0.5000487535346312 		Uiso   ? 		H 		0.106793
H 1.0  		0.8615095547537708 		0.48969578017664384  0.496636006110443 		Uiso   ? 		H 		0.106793
H 1.0  		0.8153108657563244 		0.9391560353287537  0.5008613124451522 		Uiso   ? 		H 		0.106793
H 1.0  		0.3477718055208579 		0.4923945044160943  0.7174895179900542 		Uiso   ? 		H 		0.107086
H 1.0  		0.31630295006854436 		0.9492149165848873  0.7166769590795332 		Uiso   ? 		H 		0.107086
H 1.0  		0.8508412527051885 		0.481108930323847  0.7192771475932005 		Uiso   ? 		H 		0.107086
H 1.0  		0.8040747879119506 		0.9443081452404319  0.7210647771963468 		Uiso   ? 		H 		0.107086
H 1.0  		0.49566616876040304 		0.33047105004906774  0.4980986121493808 		Uiso   ? 		H 		0.106793
H 1.0  		0.45825079753280923 		0.8238469087340531  0.5023239184840901 		Uiso   ? 		H 		0.106793
H 1.0  		0.988855617054127 		0.32237487733071646  0.5008613124451522 		Uiso   ? 		H 		0.106793
H 1.0  		0.9604085903740529 		0.8243375858684986  0.49696102967465133 		Uiso   ? 		H 		0.106793
H 1.0  		0.498757059348786 		0.33537782139352307  0.7170019826437416 		Uiso   ? 		H 		0.107091
H 1.0  		0.4597711063111545 		0.8243375858684986  0.7217148243247634 		Uiso   ? 		H 		0.107091
H 1.0  		0.9968425989914529 		0.3289990186457311  0.7225273832352844 		Uiso   ? 		H 		0.107091
H 1.0  		0.9585926679114667 		0.8194308145240432  0.7207397536321383 		Uiso   ? 		H 		0.107091
H 1.0  		0.22333726034915855 		0.0429342492639843  0.5200377027334482 		Uiso   ? 		H 		0.114093
H 1.0  		0.17522744647281738 		0.5225711481844946  0.526375662235512 		Uiso   ? 		H 		0.114093
H 1.0  		0.7239640227100308 		0.03483807654563297  0.5187376084766145 		Uiso   ? 		H 		0.114093
H 1.0  		0.6946562955773994 		0.5287046123650638  0.5210127734260733 		Uiso   ? 		H 		0.114093
H 1.0  		0.30379888472611527 		0.32752698724239454  0.47518445087268824 		Uiso   ? 		H 		0.114046
H 1.0  		0.2772555967013482 		0.8277723258096173  0.47567198621900086 		Uiso   ? 		H 		0.114046
H 1.0  		0.8111155366356272 		0.33366045142296374  0.47599700978320925 		Uiso   ? 		H 		0.114046
H 1.0  		0.7799214979144655 		0.8326790971540727  0.47518445087268824 		Uiso   ? 		H 		0.114046
H 1.0  		0.16594609558215398 		0.42836113837095197  0.5177625377839893 		Uiso   ? 		H 		0.114097
H 1.0  		0.14408170702258427 		0.9413640824337587  0.5219878441186986 		Uiso   ? 		H 		0.114097
H 1.0  		0.6821546784073281 		0.4340039254170756  0.5193876556050313 		Uiso   ? 		H 		0.114097
H 1.0  		0.6365632821274657 		0.9433267909715408  0.5257256151070953 		Uiso   ? 		H 		0.114097
H 1.0  		0.465300294197748 		0.137144259077527  0.5234504501576364 		Uiso   ? 		H 		0.114094
H 1.0  		0.4297403967624066 		0.6312561334641806  0.5232879383755322 		Uiso   ? 		H 		0.114094
H 1.0  		0.9647217966999302 		0.14278704612365065  0.523937985503949 		Uiso   ? 		H 		0.114094
H 1.0  		0.9334841903118268 		0.6332188420019628  0.5237754737218447 		Uiso   ? 		H 		0.114094
H 1.0  		0.17160234132026958 		0.4303238469087341  0.48005980433581436 		Uiso   ? 		H 		0.114048
H 1.0  		0.1502353394305474 		0.9396467124631993  0.47729710404004283 		Uiso   ? 		H 		0.114048
H 1.0  		0.6886696164293633 		0.4376840039254171  0.4805473396821269 		Uiso   ? 		H 		0.114048
H 1.0  		0.6396762969787382 		0.9406280667320904  0.47502193909058404 		Uiso   ? 		H 		0.114048
H 1.0  		0.18776065111375148 		0.4320412168792934  0.6973380570091332 		Uiso   ? 		H 		0.115401
H 1.0  		0.15462533057625455 		0.9433267909715408  0.6999382455228004 		Uiso   ? 		H 		0.115401
H 1.0  		0.6875481564261186 		0.4320412168792934  0.6976630805733416 		Uiso   ? 		H 		0.115401
H 1.0  		0.6540930897728534 		0.9401373895976448  0.6973380570091332 		Uiso   ? 		H 		0.115401
H 1.0  		0.30570262338142223 		0.32580961727183516  0.6986381512659668 		Uiso   ? 		H 		0.115447
H 1.0  		0.2778381105364415 		0.8348871442590776  0.6962004745344037 		Uiso   ? 		H 		0.115447
H 1.0  		0.8178758153102108 		0.33783120706575076  0.6947378684954659 		Uiso   ? 		H 		0.115447
H 1.0  		0.780558981977364 		0.8326790971540727  0.696362986316508 		Uiso   ? 		H 		0.115447
H 1.0  		0.4653264347979131 		0.1422963689892051  0.47794715116845965 		Uiso   ? 		H 		0.114045
H 1.0  		0.4294226588152762 		0.6344455348380765  0.47729710404004283 		Uiso   ? 		H 		0.114045
H 1.0  		0.965692437608098 		0.13665358194308147  0.4763220333474177 		Uiso   ? 		H 		0.114045
H 1.0  		0.9324545628385783 		0.6337095191364084  0.47713459225793864 		Uiso   ? 		H 		0.114045
H 1.0  		0.4607326624979615 		0.14033366045142295  0.6957129391880911 		Uiso   ? 		H 		0.115416
H 1.0  		0.4336464119677673 		0.6292934249263985  0.6966880098807163 		Uiso   ? 		H 		0.115416
H 1.0  		0.9649322832189253 		0.13640824337585872  0.6970130334449247 		Uiso   ? 		H 		0.115416
H 1.0  		0.93155162202888 		0.6472031403336604  0.6997757337406961 		Uiso   ? 		H 		0.115416
H 1.0  		0.3044792211892444 		0.4376840039254171  0.5219878441186986 		Uiso   ? 		H 		0.111102
H 1.0  		0.26700887973384546 		0.9381746810598627  0.5197126791692397 		Uiso   ? 		H 		0.111102
H 1.0  		0.8186526814994491 		0.443081452404318  0.5224753794650111 		Uiso   ? 		H 		0.111102
H 1.0  		0.7691076860100083 		0.9330225711481845  0.5197126791692397 		Uiso   ? 		H 		0.111102
H 1.0  		0.4651909657852272 		0.2831207065750736  0.5236129619397406 		Uiso   ? 		H 		0.111103
H 1.0  		0.42968804674632866 		0.776496565260059  0.5218253323365943 		Uiso   ? 		H 		0.111103
H 1.0  		0.9608318124357978 		0.2735525024533857  0.5226378912471155 		Uiso   ? 		H 		0.111103
H 1.0  		0.931655469162829 		0.7693817468105987  0.5208502616439692 		Uiso   ? 		H 		0.111103
H 1.0  		0.3149417339149444 		0.4416094210009814  0.47258426235902096 		Uiso   ? 		H 		0.111054
H 1.0  		0.2722119873278926 		0.9286064769381748  0.48087236324633537 		Uiso   ? 		H 		0.111054
H 1.0  		0.8236560242765274 		0.44798822374877334  0.4724217505769168 		Uiso   ? 		H 		0.111054
H 1.0  		0.7697190294727418 		0.9278704612365065  0.48022231611791855 		Uiso   ? 		H 		0.111054
H 1.0  		0.30277255832343136 		0.4423454367026497  0.6986381512659668 		Uiso   ? 		H 		0.111859
H 1.0  		0.2645072083453063 		0.935721295387635  0.6999382455228004 		Uiso   ? 		H 		0.111859
H 1.0  		0.816919878033471 		0.44259077526987245  0.6913251210712775 		Uiso   ? 		H 		0.111859
H 1.0  		0.7577227972391953 		0.9327772325809618  0.6994507101764877 		Uiso   ? 		H 		0.111859
H 1.0  		0.46343202171908404 		0.27747791952894996  0.4764845451295219 		Uiso   ? 		H 		0.111055
H 1.0  		0.4293066250380048 		0.7850834151128558  0.47339682126954197 		Uiso   ? 		H 		0.111055
H 1.0  		0.9628495078839907 		0.27036310107948974  0.4774596158221471 		Uiso   ? 		H 		0.111055
H 1.0  		0.9326408481102983 		0.7841020608439648  0.4746969155263756 		Uiso   ? 		H 		0.111055
H 1.0  		0.46587872287981796 		0.28704612365063786  0.6960379627522996 		Uiso   ? 		H 		0.111848
H 1.0  		0.43095430133873713 		0.7747791952894996  0.6992881983943835 		Uiso   ? 		H 		0.111848
H 1.0  		0.9641941842768944 		0.28410206084396467  0.696362986316508 		Uiso   ? 		H 		0.111848
H 1.0  		0.9310595445982346 		0.7715897939156036  0.6992881983943835 		Uiso   ? 		H 		0.111848
H 1.0  		0.06822478309484847 		0.20019627085377822  0.5208502616439692 		Uiso   ? 		H 		0.114095
H 1.0  		0.037690352699474794 		0.6916094210009814  0.5226378912471155 		Uiso   ? 		H 		0.114095
H 1.0  		0.5702230433076267 		0.18719332679097156  0.5236129619397406 		Uiso   ? 		H 		0.114095
H 1.0  		0.5358281735424718 		0.6955348380765457  0.522312867682907 		Uiso   ? 		H 		0.114095
H 1.0  		0.31733686914205933 		0.3393032384690874  0.5236129619397406 		Uiso   ? 		H 		0.114096
H 1.0  		0.276782342463028 		0.830225711481845  0.5213377969902818 		Uiso   ? 		H 		0.114096
H 1.0  		0.8039195468837518 		0.32139352306182534  0.5177625377839893 		Uiso   ? 		H 		0.114096
H 1.0  		0.775899517747581 		0.8297350343473995  0.5219878441186986 		Uiso   ? 		H 		0.114096
H 1.0  		0.06461298544818019 		0.33194308145240436  0.522312867682907 		Uiso   ? 		H 		0.111102
H 1.0  		0.03479446091620014 		0.8388125613346419  0.5250755679786784 		Uiso   ? 		H 		0.111102
H 1.0  		0.5685934061167606 		0.3326790971540727  0.5219878441186986 		Uiso   ? 		H 		0.111102
H 1.0  		0.5330422222148075 		0.8285083415112856  0.522312867682907 		Uiso   ? 		H 		0.111102
H 1.0  		0.17226406103831698 		0.19578017664376843  0.522312867682907 		Uiso   ? 		H 		0.111104
H 1.0  		0.1360184146770225 		0.6923454367026497  0.5262131504534079 		Uiso   ? 		H 		0.111104
H 1.0  		0.6697449625830011 		0.189892051030422  0.5228004030292196 		Uiso   ? 		H 		0.111104
H 1.0  		0.6306624798192604 		0.6837585868498528  0.5252380797607826 		Uiso   ? 		H 		0.111104
H 1.0  		0.06747395428215362 		0.33341511285574094  0.4743718919621672 		Uiso   ? 		H 		0.111054
H 1.0  		0.036507829146763704 		0.8294896957801766  0.47859719829687647 		Uiso   ? 		H 		0.111054
H 1.0  		0.569942779705777 		0.33537782139352307  0.47485942730847985 		Uiso   ? 		H 		0.111054
H 1.0  		0.5323739003556311 		0.834396467124632  0.47778463938635546 		Uiso   ? 		H 		0.111054
H 1.0  		0.06842648726470739 		0.3476447497546615  0.6882373972112978 		Uiso   ? 		H 		0.111852
H 1.0  		0.036433423683544075 		0.8267909715407263  0.6983131277017582 		Uiso   ? 		H 		0.111852
H 1.0  		0.5708912963510553 		0.3368498527968597  0.694087821367049 		Uiso   ? 		H 		0.111852
H 1.0  		0.536812156364393 		0.835623159960746  0.6955504274059869 		Uiso   ? 		H 		0.111852
H 1.0  		0.17171640133677712 		0.19553483807654568  0.4763220333474177 		Uiso   ? 		H 		0.111055
H 1.0  		0.14209294442565315 		0.6989695780176645  0.47778463938635546 		Uiso   ? 		H 		0.111055
H 1.0  		0.6644393007569314 		0.18523061825318943  0.4761595215653135 		Uiso   ? 		H 		0.111055
H 1.0  		0.6346603275546175 		0.6879293424926398  0.4774596158221471 		Uiso   ? 		H 		0.111055
H 1.0  		0.1676944211698927 		0.19259077526987245  0.6979881041375499 		Uiso   ? 		H 		0.111851
H 1.0  		0.13489024930902713 		0.6913640824337587  0.6970130334449247 		Uiso   ? 		H 		0.111851
H 1.0  		0.6612672993405782 		0.1822865554465162  0.6926252153281112 		Uiso   ? 		H 		0.111851
H 1.0  		0.6301805120475519 		0.6844946025515212  0.6952254038417784 		Uiso   ? 		H 		0.111851
H 1.0  		0.3554633802211863 		0.02796859666339549  0.47697208047583445 		Uiso   ? 		H 		0.111054
H 1.0  		0.32888254903539077 		0.5387634936211974  0.48005980433581436 		Uiso   ? 		H 		0.111054
H 1.0  		0.8561973940101939 		0.02306182531894014  0.47599700978320925 		Uiso   ? 		H 		0.111054
H 1.0  		0.818976409544619 		0.5368007850834152  0.4810348750284395 		Uiso   ? 		H 		0.111054
H 1.0  		0.3445711809241079 		0.03508341511285574  0.696362986316508 		Uiso   ? 		H 		0.111834
H 1.0  		0.3095783784257207 		0.5392541707556429  0.6976630805733416 		Uiso   ? 		H 		0.111834
H 1.0  		0.8465627357721355 		0.02674190382728165  0.6957129391880911 		Uiso   ? 		H 		0.111834
H 1.0  		0.8229481166798109 		0.5358194308145241  0.6997757337406961 		Uiso   ? 		H 		0.111834
H 1.0  		0.2205566870764442 		0.14106967615309127  0.4746969155263756 		Uiso   ? 		H 		0.111054
H 1.0  		0.18739321777014437 		0.6408243375858685  0.47697208047583445 		Uiso   ? 		H 		0.111054
H 1.0  		0.7235644586682192 		0.1415603532875368  0.4781096629505639 		Uiso   ? 		H 		0.111054
H 1.0  		0.6938753098272639 		0.6440137389597645  0.48022231611791855 		Uiso   ? 		H 		0.111054
H 1.0  		0.21069680428008924 		0.13027477919528951  0.6926252153281112 		Uiso   ? 		H 		0.111876
H 1.0  		0.1890603293062912 		0.640333660451423  0.6984756394838625 		Uiso   ? 		H 		0.111876
H 1.0  		0.7169248421512718 		0.13125613346418058  0.6968505216628206 		Uiso   ? 		H 		0.111876
H 1.0  		0.6824864047191752 		0.6310107948969579  0.6953879156238827 		Uiso   ? 		H 		0.111876
H 1.0  		0.35607673185255745 		0.029195289499509326  0.5219878441186986 		Uiso   ? 		H 		0.111102
H 1.0  		0.3384293910807282 		0.5417075564278706  0.5205252380797607 		Uiso   ? 		H 		0.111102
H 1.0  		0.8569334159678392 		0.024533856722276745  0.5250755679786784 		Uiso   ? 		H 		0.111102
H 1.0  		0.8228013139220094 		0.5368007850834152  0.5203627262976566 		Uiso   ? 		H 		0.111102
H 1.0  		0.2229598205702364 		0.14205103042198233  0.521500308772386 		Uiso   ? 		H 		0.111102
H 1.0  		0.18710631761929192 		0.6381256133464182  0.5221503559008028 		Uiso   ? 		H 		0.111102
H 1.0  		0.7258536353691254 		0.1440137389597645  0.5200377027334482 		Uiso   ? 		H 		0.111102
H 1.0  		0.6933430690238629 		0.6408243375858685  0.5219878441186986 		Uiso   ? 		H 		0.111102
H 1.0  		0.3634301428406389 		0.2818940137389598  0.5211752852081776 		Uiso   ? 		H 		0.114093
H 1.0  		0.3186652737386176 		0.7686457311089304  0.5185750966945103 		Uiso   ? 		H 		0.114093
H 1.0  		0.8609351768168503 		0.27477919528949957  0.5234504501576364 		Uiso   ? 		H 		0.114093
H 1.0  		0.8318439607091273 		0.7814033366045143  0.522312867682907 		Uiso   ? 		H 		0.114093
H 1.0  		0.35697950062288664 		0.4045632973503435  0.38661552962589785 		Uiso   ? 		H 		0.028019
H 1.0  		0.3258907051612224 		0.9003925417075564  0.38954074170377345 		Uiso   ? 		H 		0.028019
H 1.0  		0.8578623253383335 		0.405053974484789  0.3906783241785029 		Uiso   ? 		H 		0.028019
H 1.0  		0.8230230309624984 		0.9035819430814525  0.38694055319010623 		Uiso   ? 		H 		0.028019
H 1.0  		0.3623924138770916 		0.4124141315014721  0.6118568596223226 		Uiso   ? 		H 		0.028046
H 1.0  		0.3265389109261472 		0.9084887144259078  0.6120193714044267 		Uiso   ? 		H 		0.028046
H 1.0  		0.8587625771205571 		0.40897939156035334  0.608931647544447 		Uiso   ? 		H 		0.028046
H 1.0  		0.8253537671617087 		0.9082433758586851  0.6069815061591964 		Uiso   ? 		H 		0.028046
H 1.0  		0.09724730857440035 		0.4099607458292444  0.3905158123963987 		Uiso   ? 		H 		0.028023
H 1.0  		0.06818693026295514 		0.9106967615309128  0.3854779471511684 		Uiso   ? 		H 		0.028023
H 1.0  		0.5977688276757751 		0.405053974484789  0.37995254655962557 		Uiso   ? 		H 		0.028023
H 1.0  		0.5649820828816863 		0.907262021589794  0.3906783241785029 		Uiso   ? 		H 		0.028023
H 1.0  		0.09426366941415265 		0.40824337585868503  0.6074690415055091 		Uiso   ? 		H 		0.028049
H 1.0  		0.06182750853210989 		0.9077526987242396  0.6142945363538855 		Uiso   ? 		H 		0.028049
H 1.0  		0.5957665511257212 		0.4052993130520118  0.604218805863425 		Uiso   ? 		H 		0.028049
H 1.0  		0.5588921342349166 		0.9035819430814525  0.6066564825949881 		Uiso   ? 		H 		0.028049
H 1.0  		0.0925055094304683 		0.1454857703631011  0.3914908830890239 		Uiso   ? 		H 		0.028021
H 1.0  		0.06009348097995271 		0.6437684003925418  0.39100334774271134 		Uiso   ? 		H 		0.028021
H 1.0  		0.5972045249899173 		0.14425907752698724  0.38905320635746093 		Uiso   ? 		H 		0.028021
H 1.0  		0.5592676346609488 		0.642541707556428  0.3830402704196054 		Uiso   ? 		H 		0.028021
H 1.0  		0.0939031478825394 		0.14573110893032384  0.6066564825949881 		Uiso   ? 		H 		0.028047
H 1.0  		0.06319979046647473 		0.6457311089303239  0.6102317418012805 		Uiso   ? 		H 		0.028047
H 1.0  		0.5981356145684188 		0.1422963689892051  0.6086066239802386 		Uiso   ? 		H 		0.028047
H 1.0  		0.5640497692170059 		0.6457311089303239  0.610556765365489 		Uiso   ? 		H 		0.028047
H 1.0  		0.44326980527645776 		0.330225711481845  0.3884031592290441 		Uiso   ? 		H 		0.028023
H 1.0  		0.40805378638841167 		0.8263002944062807  0.38921571813956507 		Uiso   ? 		H 		0.028023
H 1.0  		0.9328796898453395 		0.32262021589793916  0.39376604803848275 		Uiso   ? 		H 		0.028023
H 1.0  		0.9003711316687149 		0.8258096172718352  0.39197841843533654 		Uiso   ? 		H 		0.028023
H 1.0  		0.4364197022405155 		0.3263002944062807  0.610556765365489 		Uiso   ? 		H 		0.028050
H 1.0  		0.40451578216187356 		0.8289990186457312  0.6097442064549679 		Uiso   ? 		H 		0.028050
H 1.0  		0.932077975957863 		0.3201668302257115  0.6155946306107192 		Uiso   ? 		H 		0.028050
H 1.0  		0.9070241589151633 		0.8267909715407263  0.613807001007573 		Uiso   ? 		H 		0.028050
H 1.0  		0.4329770036539076 		0.060598626104023556  0.39441609516689957 		Uiso   ? 		H 		0.028026
H 1.0  		0.4012353052312061 		0.5593719332679097  0.38645301784379366 		Uiso   ? 		H 		0.028026
H 1.0  		0.9364097646209482 		0.061089303238469096  0.3929534891279618 		Uiso   ? 		H 		0.028026
H 1.0  		0.9078816271129039 		0.5650147203140334  0.38937822992166926 		Uiso   ? 		H 		0.028026
H 1.0  		0.4339342338325741 		0.06378802747791953  0.6133194656612604 		Uiso   ? 		H 		0.028054
H 1.0  		0.4024707220273368 		0.5635426889106968  0.6037312705171124 		Uiso   ? 		H 		0.028054
H 1.0  		0.9367690620663826 		0.06010794896957802  0.6097442064549679 		Uiso   ? 		H 		0.028054
H 1.0  		0.9060831317170945 		0.5635426889106968  0.6055189001202587 		Uiso   ? 		H 		0.028054
H 1.0  		0.1749863286047878 		0.06820412168792936  0.37913998764910456 		Uiso   ? 		H 		0.028022
H 1.0  		0.1408240696215174 		0.5625613346418058  0.39197841843533654 		Uiso   ? 		H 		0.028022
H 1.0  		0.670716999616717 		0.05839057899901865  0.39311600091006593 		Uiso   ? 		H 		0.028022
H 1.0  		0.6419348079227359 		0.560107948969578  0.38921571813956507 		Uiso   ? 		H 		0.028022
H 1.0  		0.1725416356126916 		0.06501472031403338  0.6107192771475931 		Uiso   ? 		H 		0.028050
H 1.0  		0.1398514205447119 		0.5623159960745829  0.6144570481359899 		Uiso   ? 		H 		0.028050
H 1.0  		0.6714201756094468 		0.05937193326790972  0.6048688529918419 		Uiso   ? 		H 		0.028050
H 1.0  		0.6405854343337194 		0.5574092247301276  0.608931647544447 		Uiso   ? 		H 		0.028050
H 1.0  		0.35499199652000835 		0.3478900883218842  0.4979361003672766 		Uiso   ? 		H 		0.105463
H 1.0  		0.3252525746473608 		0.8464180569185478  0.4971235414567556 		Uiso   ? 		H 		0.105463
H 1.0  		0.85639634033683 		0.3434739941118744  0.5018363831377775 		Uiso   ? 		H 		0.105463
H 1.0  		0.8271167619730013 		0.8488714425907753  0.4987486592777976 		Uiso   ? 		H 		0.105463
H 1.0  		0.3593162957358842 		0.3505888125613347  0.715701888386908 		Uiso   ? 		H 		0.106701
H 1.0  		0.32945621170560024 		0.8552502453385673  0.7189521240289921 		Uiso   ? 		H 		0.106701
H 1.0  		0.8658794986209739 		0.3518155053974485  0.7217148243247634 		Uiso   ? 		H 		0.106701
H 1.0  		0.8314739071537929 		0.8520608439646713  0.7200897065037215 		Uiso   ? 		H 		0.106701
H 1.0  		0.22820721109793646 		0.039499509322865556  0.4798972925537101 		Uiso   ? 		H 		0.114044
H 1.0  		0.17760644753508228 		0.5247791952894995  0.47144667988429156 		Uiso   ? 		H 		0.114044
H 1.0  		0.7280671137048855 		0.035819430814524045  0.4807098514642312 		Uiso   ? 		H 		0.114044
H 1.0  		0.6859111674195386 		0.5282139352306183  0.47339682126954197 		Uiso   ? 		H 		0.114044
H 1.0  		0.04255383893861922 		0.1484298331697743  0.5008613124451522 		Uiso   ? 		H 		0.105464
H 1.0  		0.011261262322710575 		0.6459764474975467  0.5013488477914648 		Uiso   ? 		H 		0.105464
H 1.0  		0.5415570574302865 		0.14941118743866535  0.4984236357135892 		Uiso   ? 		H 		0.105464
H 1.0  		0.5027681801821487 		0.641315014720314  0.4995612181883186 		Uiso   ? 		H 		0.105464
H 1.0  		0.03772813671562036 		0.13665358194308147  0.7210647771963468 		Uiso   ? 		H 		0.106652
H 1.0  		0.0025489801297654546 		0.6459764474975467  0.7205772418500341 		Uiso   ? 		H 		0.106652
H 1.0  		0.5348604625168963 		0.13984298331697742  0.71732700620795 		Uiso   ? 		H 		0.106652
H 1.0  		0.5097476589091159 		0.6408243375858685  0.7171644944258458 		Uiso   ? 		H 		0.106652
H 1.0  		0.3792760583340665 		0.3297350343473995  0.49907368284200604 		Uiso   ? 		H 		0.105463
H 1.0  		0.3448597451648594 		0.821884200196271  0.49728605323885977 		Uiso   ? 		H 		0.105463
H 1.0  		0.8757427513036412 		0.32139352306182534  0.49972372997042286 		Uiso   ? 		H 		0.105463
H 1.0  		0.8472233273289853 		0.8270363101079491  0.4984236357135892 		Uiso   ? 		H 		0.105463
H 1.0  		0.38506368793184476 		0.33366045142296374  0.714076770565866 		Uiso   ? 		H 		0.106685
H 1.0  		0.3524565918604731 		0.8353778213935231  0.7155393766048037 		Uiso   ? 		H 		0.106685
H 1.0  		0.8831820735394273 		0.3277723258096173  0.7212272889784509 		Uiso   ? 		H 		0.106685
H 1.0  		0.8505092855382244 		0.8285083415112856  0.7197646829395131 		Uiso   ? 		H 		0.106685
H 1.0  		0.22805370297538435 		0.045142296368989206  0.6978255923554456 		Uiso   ? 		H 		0.115422
H 1.0  		0.1994625625649838 		0.530667320902846  0.6965254980986121 		Uiso   ? 		H 		0.115422
H 1.0  		0.7430469850986796 		0.032630029440628074  0.6976630805733416 		Uiso   ? 		H 		0.115422
H 1.0  		0.7027639396723617 		0.5291952894995093  0.6968505216628206 		Uiso   ? 		H 		0.115422
H 1.0  		0.18101194703940054 		0.023307163886162906  0.4987486592777976 		Uiso   ? 		H 		0.105463
H 1.0  		0.13872328958459051 		0.48356231599607463  0.4985861474956934 		Uiso   ? 		H 		0.105463
H 1.0  		0.6767620532867443 		0.023307163886162906  0.49988624175252705 		Uiso   ? 		H 		0.105463
H 1.0  		0.6515648033725554 		0.48969578017664384  0.5002112653167354 		Uiso   ? 		H 		0.105463
H 1.0  		0.18718300651414035 		0.025024533856722278  0.7236649657100139 		Uiso   ? 		H 		0.106716
H 1.0  		0.15867365779054723 		0.48478900883218845  0.7186271004647836 		Uiso   ? 		H 		0.106716
H 1.0  		0.6892663938921644 		0.022816486751717373  0.7160269119511163 		Uiso   ? 		H 		0.106716
H 1.0  		0.6588533065132643 		0.48429833169774295  0.7189521240289921 		Uiso   ? 		H 		0.106716
H 1.0  		0.17354978527401382 		0.12610402355250247  0.498261123931485 		Uiso   ? 		H 		0.106790
H 1.0  		0.13980581030125852 		0.6251226692836115  0.4989111710599018 		Uiso   ? 		H 		0.106790
H 1.0  		0.675379118466101 		0.12168792934249265  0.4971235414567556 		Uiso   ? 		H 		0.106790
H 1.0  		0.6404084402306034 		0.618253189401374  0.49972372997042286 		Uiso   ? 		H 		0.106790
H 1.0  		0.1677688610409862 		0.1175171736997056  0.7168394708616374 		Uiso   ? 		H 		0.107115
H 1.0  		0.13813669059647388 		0.619234543670265  0.7215523125426594 		Uiso   ? 		H 		0.107115
H 1.0  		0.669828115987483 		0.11653581943081454  0.7187896122468879 		Uiso   ? 		H 		0.107115
H 1.0  		0.634791745822154 		0.6121197252208048  0.7179770533363669 		Uiso   ? 		H 		0.107115
H 1.0  		0.35540731624005734 		0.9921491658488715  0.498261123931485 		Uiso   ? 		H 		0.106792
H 1.0  		0.3673293494576275 		0.5179097154072622  0.4985861474956934 		Uiso   ? 		H 		0.106792
H 1.0  		0.8533856044545889 		0.9825809617271836  0.49923619462411023 		Uiso   ? 		H 		0.106792
H 1.0  		0.8626980339966475 		0.526496565260059  0.4963109825462345 		Uiso   ? 		H 		0.106792
H 1.0  		0.35043882759653255 		0.9941118743866536  0.7176520297721585 		Uiso   ? 		H 		0.107080
H 1.0  		0.345372007505504 		0.5279685966633956  0.7213898007605551 		Uiso   ? 		H 		0.107080
H 1.0  		0.8431878676168518 		0.9889597644749755  0.7178145415542626 		Uiso   ? 		H 		0.107080
H 1.0  		0.8571141855531137 		0.5208537782139353  0.7207397536321383 		Uiso   ? 		H 		0.107080
H 1.0  		0.1530839224725956 		0.14892051030421982  0.49972372997042286 		Uiso   ? 		H 		0.106792
H 1.0  		0.12121955372361987 		0.6474484789008832  0.49907368284200604 		Uiso   ? 		H 		0.106792
H 1.0  		0.6511520350484858 		0.13910696761530914  0.4979361003672766 		Uiso   ? 		H 		0.106792
H 1.0  		0.6203849938712276 		0.64450441609421  0.5010238242272564 		Uiso   ? 		H 		0.106792
H 1.0  		0.14997560481743594 		0.14057899901864573  0.7179770533363669 		Uiso   ? 		H 		0.107101
H 1.0  		0.11529182673279079 		0.6398429833169775  0.7215523125426594 		Uiso   ? 		H 		0.107101
H 1.0  		0.6451190647981591 		0.13469087340529934  0.7186271004647836 		Uiso   ? 		H 		0.107101
H 1.0  		0.6154540483887312 		0.6359175662414133  0.7194396593753046 		Uiso   ? 		H 		0.107101
H 1.0  		0.031018708707944598 		0.3459273797841021  0.5000487535346312 		Uiso   ? 		H 		0.106792
H 1.0  		0.002718484785672104 		0.8469087340529932  0.49696102967465133 		Uiso   ? 		H 		0.106792
H 1.0  		0.538817328389165 		0.351324828263003  0.4979361003672766 		Uiso   ? 		H 		0.106792
H 1.0  		0.499040383166083 		0.8459273797841022  0.5023239184840901 		Uiso   ? 		H 		0.106792
H 1.0  		0.03991264779224474 		0.3518155053974485  0.7236649657100139 		Uiso   ? 		H 		0.107077
H 1.0  		0.0003636161549344652 		0.8434739941118745  0.7231774303637013 		Uiso   ? 		H 		0.107077
H 1.0  		0.5416213188266956 		0.35353287536800787  0.7189521240289921 		Uiso   ? 		H 		0.107077
H 1.0  		0.5045585396797855 		0.8505888125613348  0.7200897065037215 		Uiso   ? 		H 		0.107077
H 1.0  		0.36525277066797557 		0.28213935230618253  0.47518445087268824 		Uiso   ? 		H 		0.114044
H 1.0  		0.325344441585231 		0.7747791952894996  0.4764845451295219 		Uiso   ? 		H 		0.114044
H 1.0  		0.8587204055791635 		0.2750245338567223  0.4761595215653135 		Uiso   ? 		H 		0.114044
H 1.0  		0.8294803785450013 		0.7762512266928362  0.47713459225793864 		Uiso   ? 		H 		0.114044
H 1.0  		0.3758655248535371 		0.08832188420019628  0.5008613124451522 		Uiso   ? 		H 		0.031510
H 1.0  		0.3284059249107584 		0.58243375858685  0.5013488477914648 		Uiso   ? 		H 		0.031510
H 1.0  		0.8786105287259869 		0.08488714425907753  0.5019988949198817 		Uiso   ? 		H 		0.031510
H 1.0  		0.8642819921283125 		0.5993621197252209  0.5006988006630481 		Uiso   ? 		H 		0.031510
H 1.0  		0.38430428321725707 		0.15407262021589796  0.7207397536321383 		Uiso   ? 		H 		0.031957
H 1.0  		0.3812520566524598 		0.6354268891069677  0.7186271004647836 		Uiso   ? 		H 		0.031957
H 1.0  		0.8961054478299474 		0.15260058881256136  0.7184645886826795 		Uiso   ? 		H 		0.031957
H 1.0  		0.8306803291644891 		0.6418056918547597  0.7186271004647836 		Uiso   ? 		H 		0.031957
H 1.0  		0.40722150996764817 		0.20755642787046125  0.4979361003672766 		Uiso   ? 		H 		0.031509
H 1.0  		0.3823312418906895 		0.7404317958783121  0.49972372997042286 		Uiso   ? 		H 		0.031509
H 1.0  		0.8427531814771362 		0.179342492639843  0.49907368284200604 		Uiso   ? 		H 		0.031509
H 1.0  		0.8777394777593757 		0.744847890088322  0.49923619462411023 		Uiso   ? 		H 		0.031509
H 1.0  		0.39589022970696575 		0.24779195289499512  0.7187896122468879 		Uiso   ? 		H 		0.031975
H 1.0  		0.37988855706723107 		0.7436211972522081  0.7174895179900542 		Uiso   ? 		H 		0.031975
H 1.0  		0.909218408462752 		0.24214916584887147  0.7179770533363669 		Uiso   ? 		H 		0.031975
H 1.0  		0.8163600316886088 		0.7151619234543671  0.7192771475932005 		Uiso   ? 		H 		0.031975
H 1.0  		0.2583371738081425 		0.13248282630029443  0.5011863360093607 		Uiso   ? 		H 		0.031509
H 1.0  		0.21924264203257507 		0.5880765456329735  0.4980986121493808 		Uiso   ? 		H 		0.031509
H 1.0  		0.7481602339234943 		0.10107948969578018  0.4987486592777976 		Uiso   ? 		H 		0.031509
H 1.0  		0.729595895161502 		0.58243375858685  0.5015113595735691 		Uiso   ? 		H 		0.031509
H 1.0  		0.2565695162086109 		0.1251226692836114  0.7213898007605551 		Uiso   ? 		H 		0.032010
H 1.0  		0.22983987409637605 		0.6305201177625123  0.7194396593753046 		Uiso   ? 		H 		0.032010
H 1.0  		0.7830649793740435 		0.14793915603532876  0.7163519355153248 		Uiso   ? 		H 		0.032010
H 1.0  		0.7171217114935226 		0.6008341511285574  0.716514447297429 		Uiso   ? 		H 		0.032010
H 1.0  		0.36413331883336864 		0.28287536800785085  0.6950628920596743 		Uiso   ? 		H 		0.115405
H 1.0  		0.33166431198641005 		0.7818940137389598  0.6960379627522996 		Uiso   ? 		H 		0.115405
H 1.0  		0.8711959165569436 		0.28680078508341517  0.6923001917639028 		Uiso   ? 		H 		0.115405
H 1.0  		0.8381222716120023 		0.7863101079489697  0.6944128449312574 		Uiso   ? 		H 		0.115405
H 1.0  		0.14042195418372622 		0.37561334641805694  0.4971235414567556 		Uiso   ? 		H 		0.031508
H 1.0  		0.12684485844183602 		0.8886162904808637  0.4993987064062144 		Uiso   ? 		H 		0.031508
H 1.0  		0.6214207834818848 		0.3520608439646713  0.4984236357135892 		Uiso   ? 		H 		0.031508
H 1.0  		0.589010763200007 		0.8567222767419039  0.5006988006630481 		Uiso   ? 		H 		0.031508
H 1.0  		0.13565459207484473 		0.31550539744847894  0.7178145415542626 		Uiso   ? 		H 		0.031983
H 1.0  		0.14817009438601103 		0.8437193326790973  0.7212272889784509 		Uiso   ? 		H 		0.031983
H 1.0  		0.6182166169594532 		0.3248282630029441  0.7184645886826795 		Uiso   ? 		H 		0.031983
H 1.0  		0.5838566013278517 		0.8400392541707558  0.7217148243247634 		Uiso   ? 		H 		0.031983
H 1.0  		0.266444033820646 		0.39008832188420023  0.49907368284200604 		Uiso   ? 		H 		0.031507
H 1.0  		0.24788840859204206 		0.8731599607458294  0.5002112653167354 		Uiso   ? 		H 		0.031507
H 1.0  		0.7833410545992482 		0.37585868498527975  0.49744856502096396 		Uiso   ? 		H 		0.031507
H 1.0  		0.7428059631556313 		0.876594700686948  0.4984236357135892 		Uiso   ? 		H 		0.031507
H 1.0  		0.2362959631848261 		0.3174681059862611  0.7189521240289921 		Uiso   ? 		H 		0.031898
H 1.0  		0.2437947119894129 		0.8500981354268892  0.7179770533363669 		Uiso   ? 		H 		0.031898
H 1.0  		0.753459768020029 		0.31992149165848877  0.7184645886826795 		Uiso   ? 		H 		0.031898
H 1.0  		0.7257574768309887 		0.825073601570167  0.7197646829395131 		Uiso   ? 		H 		0.031898
H 1.0  		0.11924896786805053 		0.2291462217860648  0.49988624175252705 		Uiso   ? 		H 		0.031508
H 1.0  		0.08915695391471917 		0.7239941118743868  0.5005362888809438 		Uiso   ? 		H 		0.031508
H 1.0  		0.6744687570249408 		0.24141315014720316  0.498261123931485 		Uiso   ? 		H 		0.031508
H 1.0  		0.6025508246003366 		0.7193326790971541  0.49907368284200604 		Uiso   ? 		H 		0.031508
H 1.0  		0.12842579076592756 		0.22497546614327776  0.7183020769005752 		Uiso   ? 		H 		0.031947
H 1.0  		0.12802135748863375 		0.7315996074582926  0.7194396593753046 		Uiso   ? 		H 		0.031947
H 1.0  		0.6202061980467171 		0.23233562315996076  0.7186271004647836 		Uiso   ? 		H 		0.031947
H 1.0  		0.6057315395500782 		0.7239941118743868  0.7200897065037215 		Uiso   ? 		H 		0.031947
H 1.0  		0.30451683316602063 		0.27158979391560356  0.35541326746189095 		Uiso   ? 		H 		0.132859
H 1.0  		0.27473785996370675 		0.7742885181550541  0.357850944193454 		Uiso   ? 		H 		0.132859
H 1.0  		0.8115968579563724 		0.2789499509322866  0.3612636916176422 		Uiso   ? 		H 		0.132859
H 1.0  		0.7679775812891231 		0.7701177625122669  0.3585009913218708 		Uiso   ? 		H 		0.132859
H 1.0  		0.3000544447257316 		0.27158979391560356  0.5751291968667728 		Uiso   ? 		H 		0.132785
H 1.0  		0.2597868181975527 		0.7652109911678117  0.5726915201352097 		Uiso   ? 		H 		0.132785
H 1.0  		0.7986963576033267 		0.26717369970559374  0.5765918029057107 		Uiso   ? 		H 		0.132785
H 1.0  		0.7787685536639795 		0.7789499509322866  0.5790294796372737 		Uiso   ? 		H 		0.132785
H 1.0  		0.20841596262595857 		0.9850343473994112  0.3593135502323918 		Uiso   ? 		H 		0.132861
H 1.0  		0.21993111439387703 		0.49043179587831215  0.3609386680534339 		Uiso   ? 		H 		0.132861
H 1.0  		0.7012963865059405 		0.9818449460255152  0.3601261091429129 		Uiso   ? 		H 		0.132861
H 1.0  		0.7188029490258816 		0.4894504416094211  0.35882601488607924 		Uiso   ? 		H 		0.132861
H 1.0  		0.21075340418991945 		0.9850343473994112  0.5764292911236064 		Uiso   ? 		H 		0.132789
H 1.0  		0.21783901348246454 		0.4909224730127576  0.5739916143920434 		Uiso   ? 		H 		0.132789
H 1.0  		0.7112574962245175 		0.9766928361138372  0.5757792439951896 		Uiso   ? 		H 		0.132789
H 1.0  		0.7208622039723784 		0.48846908734053  0.5762667793415022 		Uiso   ? 		H 		0.132789
H 1.0  		0.008325413613923596 		0.1989695780176644  0.3537881496408489 		Uiso   ? 		H 		0.132860
H 1.0  		0.9859770491140074 		0.7063297350343475  0.35541326746189095 		Uiso   ? 		H 		0.132860
H 1.0  		0.5166609712946577 		0.19651619234543674  0.3583384795397666 		Uiso   ? 		H 		0.132860
H 1.0  		0.48241760148341706 		0.6928361138370952  0.358663503103975 		Uiso   ? 		H 		0.132860
H 1.0  		0.019523948297268945 		0.20436702649656527  0.5772418500341274 		Uiso   ? 		H 		0.132788
H 1.0  		0.9834251046937759 		0.6999509322865556  0.5759417557772938 		Uiso   ? 		H 		0.132788
H 1.0  		0.5164659036738015 		0.19995093228655544  0.5767543146878148 		Uiso   ? 		H 		0.132788
H 1.0  		0.4827460611325735 		0.6977428851815506  0.576104267559398 		Uiso   ? 		H 		0.132788
H 1.0  		0.30187707255306834 		0.27183513248282637  0.42139305099619717 		Uiso   ? 		H 		0.132889
H 1.0  		0.2709525069159824 		0.7701177625122669  0.420417980303572 		Uiso   ? 		H 		0.132889
H 1.0  		0.7958025428044375 		0.2652109911678116  0.42301816881723925 		Uiso   ? 		H 		0.132889
H 1.0  		0.7652788341110901 		0.7647203140333662  0.42464328663828127 		Uiso   ? 		H 		0.132889
H 1.0  		0.29832164125975347 		0.271099116781158  0.6430591217863294 		Uiso   ? 		H 		0.132991
H 1.0  		0.26210012732998633 		0.7664376840039255  0.6461468456463093 		Uiso   ? 		H 		0.132991
H 1.0  		0.8018683590196798 		0.27011776251226693  0.6433841453505379 		Uiso   ? 		H 		0.132991
H 1.0  		0.772580067122463 		0.7737978410206084  0.6412714921831832 		Uiso   ? 		H 		0.132991
H 1.0  		0.21669454191024978 		0.9833169774288519  0.4226931452530308 		Uiso   ? 		H 		0.132891
H 1.0  		0.2251382383251997 		0.4936211972522081  0.42561835733090647 		Uiso   ? 		H 		0.132891
H 1.0  		0.7090273060886919 		0.9798822374877332  0.42236812168882243 		Uiso   ? 		H 		0.132891
H 1.0  		0.7063710057150434 		0.4862610402355251  0.417167744661488 		Uiso   ? 		H 		0.132891
H 1.0  		0.2209115896979904 		0.9828263002944064  0.643546657132642 		Uiso   ? 		H 		0.132993
H 1.0  		0.22832565863969184 		0.4936211972522081  0.6417590275294959 		Uiso   ? 		H 		0.132993
H 1.0  		0.7097700334110878 		0.9766928361138372  0.637858744758995 		Uiso   ? 		H 		0.132993
H 1.0  		0.7133504844420104 		0.4857703631010795  0.6380212565410992 		Uiso   ? 		H 		0.132993
H 1.0  		0.01385027549237662 		0.1989695780176644  0.42139305099619717 		Uiso   ? 		H 		0.132891
H 1.0  		0.9883037689759422 		0.6982335623159962  0.42415575129196864 		Uiso   ? 		H 		0.132891
H 1.0  		0.5145031784534139 		0.1960255152109912  0.4217180745604056 		Uiso   ? 		H 		0.132891
H 1.0  		0.4807457927511575 		0.7043670264965654  0.42513082198459384 		Uiso   ? 		H 		0.132891
H 1.0  		0.017313874255695083 		0.19357212953876352  0.640296421490558 		Uiso   ? 		H 		0.132986
H 1.0  		0.9799092247301273 		0.6950441609421002  0.6409464686189749 		Uiso   ? 		H 		0.132986
H 1.0  		0.5154014220669998 		0.19357212953876352  0.641108980401079 		Uiso   ? 		H 		0.132986
H 1.0  		0.4809716981682914 		0.6950441609421002  0.6441967042610589 		Uiso   ? 		H 		0.132986
H 1.0  		0.06795330184213495 		0.19455348380765458  0.4763220333474177 		Uiso   ? 		H 		0.114045
H 1.0  		0.03725664979082077 		0.6898920510304221  0.47778463938635546 		Uiso   ? 		H 		0.114045
H 1.0  		0.5707988517779694 		0.1989695780176644  0.4764845451295219 		Uiso   ? 		H 		0.114045
H 1.0  		0.5341174943393832 		0.6874386653581944  0.4753469626547924 		Uiso   ? 		H 		0.114045
H 1.0  		0.23046548118681714 		0.2033856722276742  0.3555757792439952 		Uiso   ? 		H 		0.133625
H 1.0  		0.20119260818773915 		0.7041216879293426  0.356225826372412 		Uiso   ? 		H 		0.133625
H 1.0  		0.7231555346420558 		0.19259077526987245  0.3593135502323918 		Uiso   ? 		H 		0.133625
H 1.0  		0.7016658624260593 		0.7016683022571149  0.35460070855136994 		Uiso   ? 		H 		0.133625
H 1.0  		0.23426625313268046 		0.20461236506378805  0.5746416615204601 		Uiso   ? 		H 		0.133924
H 1.0  		0.19733284967679518 		0.6972522080471051  0.5788669678551694 		Uiso   ? 		H 		0.133924
H 1.0  		0.7221654584984737 		0.18891069676153094  0.5775668735983358 		Uiso   ? 		H 		0.133924
H 1.0  		0.6969648386979724 		0.6965161923454367  0.5772418500341274 		Uiso   ? 		H 		0.133924
H 1.0  		0.29035780122425264 		0.9869970559371933  0.3591510384502876 		Uiso   ? 		H 		0.133626
H 1.0  		0.2956100609874349 		0.4845436702649657  0.3620762505281633 		Uiso   ? 		H 		0.133626
H 1.0  		0.7858866992505753 		0.9852796859666341  0.35963857379660025 		Uiso   ? 		H 		0.133626
H 1.0  		0.7870600004504301 		0.48061825318940143  0.36175122696395484 		Uiso   ? 		H 		0.133626
H 1.0  		0.2874747081273898 		0.9931305201177626  0.5756167322130854 		Uiso   ? 		H 		0.133928
H 1.0  		0.27990958653413434 		0.4833169774288519  0.5749666850846685 		Uiso   ? 		H 		0.133928
H 1.0  		0.78637938872431 		0.9926398429833171  0.5749666850846685 		Uiso   ? 		H 		0.133928
H 1.0  		0.7892834852215052 		0.48209028459273806  0.5762667793415022 		Uiso   ? 		H 		0.133928
H 1.0  		0.01617025558168697 		0.27330716388616294  0.3576884324113498 		Uiso   ? 		H 		0.133626
H 1.0  		0.985622414456812 		0.7740431795878312  0.35882601488607924 		Uiso   ? 		H 		0.133626
H 1.0  		0.5177542481212257 		0.2684003925417076  0.3557382910260994 		Uiso   ? 		H 		0.133626
H 1.0  		0.4817338263182279 		0.7794406280667322  0.36028862092501707 		Uiso   ? 		H 		0.133626
H 1.0  		0.07291106878363365 		0.18449460255152111  0.6921376799817986 		Uiso   ? 		H 		0.115406
H 1.0  		0.03447209458870476 		0.6974975466143278  0.6979881041375499 		Uiso   ? 		H 		0.115406
H 1.0  		0.5679358747753581 		0.19111874386653585  0.6966880098807163 		Uiso   ? 		H 		0.115406
H 1.0  		0.5385161990184787 		0.6928361138370952  0.6975005687912373 		Uiso   ? 		H 		0.115406
H 1.0  		0.015583044550480846 		0.2772325809617272  0.5791919914193778 		Uiso   ? 		H 		0.133927
H 1.0  		0.9859247335058033 		0.7737978410206084  0.5762667793415022 		Uiso   ? 		H 		0.133927
H 1.0  		0.5150246631469149 		0.2688910696761531  0.5746416615204601 		Uiso   ? 		H 		0.133927
H 1.0  		0.4823190291807962 		0.7691364082433759  0.5770793382520233 		Uiso   ? 		H 		0.133927
H 1.0  		0.22969661326425617 		0.20142296368989207  0.4202554685214678 		Uiso   ? 		H 		0.134020
H 1.0  		0.18858571335029659 		0.6903827281648676  0.41798030357200894 		Uiso   ? 		H 		0.134020
H 1.0  		0.72827283421202 		0.1960255152109912  0.42155556277830136 		Uiso   ? 		H 		0.134020
H 1.0  		0.6994752236199 		0.7006869479882237  0.42415575129196864 		Uiso   ? 		H 		0.134020
H 1.0  		0.23142941673023426 		0.2019136408243376  0.6428966100042253 		Uiso   ? 		H 		0.133603
H 1.0  		0.19530644069521397 		0.6987242394504416  0.6425715864400169 		Uiso   ? 		H 		0.133603
H 1.0  		0.7177339078544626 		0.18302257114818452  0.6391588390158286 		Uiso   ? 		H 		0.133603
H 1.0  		0.7008728620719711 		0.7009322865554466  0.6451717749536842 		Uiso   ? 		H 		0.133603
H 1.0  		0.3468884031701954 		0.28238469087340534  0.11863360093606785 		Uiso   ? 		H 		0.031782
H 1.0  		0.30411039172008897 		0.7718351324828263  0.12123378944973509 		Uiso   ? 		H 		0.031782
H 1.0  		0.8370613663387559 		0.27208047105004907  0.11863360093606785 		Uiso   ? 		H 		0.031782
H 1.0  		0.8067173063681257 		0.7710991167811581  0.11733350667923423 		Uiso   ? 		H 		0.031782
H 1.0  		0.29240395511211326 		0.295387634936212  0.11522085351187959 		Uiso   ? 		H 		0.031789
H 1.0  		0.27348164621448723 		0.8078999018645732  0.11928364806448466 		Uiso   ? 		H 		0.031789
H 1.0  		0.8061128747173861 		0.30495583905789997  0.11847108915396365 		Uiso   ? 		H 		0.031789
H 1.0  		0.7628354684287943 		0.7917075564278705  0.11717099489713002 		Uiso   ? 		H 		0.031789
H 1.0  		0.1889680223647009 		0.1913640824337586  0.11960867162869307 		Uiso   ? 		H 		0.030394
H 1.0  		0.16948934023214662 		0.7019136408243377  0.11765853024344264 		Uiso   ? 		H 		0.030394
H 1.0  		0.6999714894271901 		0.20019627085377822  0.11717099489713002 		Uiso   ? 		H 		0.030394
H 1.0  		0.6593117194886613 		0.6943081452404318  0.11895862450027626 		Uiso   ? 		H 		0.030394
H 1.0  		0.2294170993369915 		0.1702649656526006  0.11960867162869307 		Uiso   ? 		H 		0.030399
H 1.0  		0.20007853440808218 		0.6700196270853779  0.11863360093606785 		Uiso   ? 		H 		0.030399
H 1.0  		0.7271433415342241 		0.16486751717369974  0.11668345955081742 		Uiso   ? 		H 		0.030399
H 1.0  		0.7161751686090083 		0.68351324828263  0.11700848311502583 		Uiso   ? 		H 		0.030399
H 1.0  		0.29124086679481676 		0.443081452404318  0.11115805895927455 		Uiso   ? 		H 		0.030449
H 1.0  		0.26770735853046246 		0.9501962708537783  0.1150583417297754 		Uiso   ? 		H 		0.030449
H 1.0  		0.8076880849077889 		0.4538763493621198  0.11635843598660901 		Uiso   ? 		H 		0.030449
H 1.0  		0.7740212044257282 		0.9381746810598627  0.11262066499821236 		Uiso   ? 		H 		0.030449
H 1.0  		0.2881604570533428 		0.990677134445535  0.20070205089869017 		Uiso   ? 		H 		0.139336
H 1.0  		0.284321701942731 		0.47939156035328756  0.19680176812818928 		Uiso   ? 		H 		0.139336
H 1.0  		0.7933964106123055 		0.9815996074582927  0.19533916208925145 		Uiso   ? 		H 		0.139336
H 1.0  		0.7879186927343497 		0.48233562315996076  0.20086456268079433 		Uiso   ? 		H 		0.139336
H 1.0  		0.01751561283342784 		0.2632482826300295  0.206227451490233 		Uiso   ? 		H 		0.139332
H 1.0  		0.9878304803297482 		0.7784592737978411  0.20005200377027335 		Uiso   ? 		H 		0.139332
H 1.0  		0.5185733890754791 		0.274288518155054  0.20070205089869017 		Uiso   ? 		H 		0.139332
H 1.0  		0.48343177565065265 		0.7730618253189402  0.2026521922839406 		Uiso   ? 		H 		0.139332
H 1.0  		0.16061361229708204 		0.4423454367026497  0.28098287125816623 		Uiso   ? 		H 		0.106349
H 1.0  		0.1434127043045707 		0.9710500490677135  0.2788702180908116 		Uiso   ? 		H 		0.106349
H 1.0  		0.6518202192761665 		0.44430814524043183  0.2803328241297494 		Uiso   ? 		H 		0.106349
H 1.0  		0.6543746118687559 		0.9776741903827282  0.2772451002697695 		Uiso   ? 		H 		0.106349
H 1.0  		0.489251199166537 		0.1251226692836114  0.2806578476939578 		Uiso   ? 		H 		0.106349
H 1.0  		0.45767172239977594 		0.6199705593719333  0.2793577534371242 		Uiso   ? 		H 		0.106349
H 1.0  		0.9974949243172747 		0.11653581943081454  0.2806578476939578 		Uiso   ? 		H 		0.106349
H 1.0  		0.9588742932309908 		0.6236506378802747  0.2790327298729158 		Uiso   ? 		H 		0.106349
H 1.0  		0.256586840051766 		0.361874386653582  0.0697175545227029 		Uiso   ? 		H 		0.414427
H 1.0  		0.2407493972366095 		0.8601570166830226  0.07280527838268275 		Uiso   ? 		H 		0.414427
H 1.0  		0.7610827553158078 		0.338567222767419  0.07296779016478694 		Uiso   ? 		H 		0.414427
H 1.0  		0.6988162273372014 		0.8400392541707558  0.06890499561218187 		Uiso   ? 		H 		0.414427
H 1.0  		0.31105855823918427 		0.334396467124632  0.2557935450320148 		Uiso   ? 		H 		0.114215
H 1.0  		0.28076477130024613 		0.8373405299313053  0.25839373354568207 		Uiso   ? 		H 		0.114215
H 1.0  		0.8059151180690549 		0.32580961727183516  0.2611564338414535 		Uiso   ? 		H 		0.114215
H 1.0  		0.7697680096025075 		0.8238469087340531  0.25871875710989045 		Uiso   ? 		H 		0.114215
H 1.0  		0.3368320222195621 		0.47816486751717374  0.27643254135924855 		Uiso   ? 		H 		0.107010
H 1.0  		0.30807934101205825 		0.9438174681059863  0.2798452887834368 		Uiso   ? 		H 		0.107010
H 1.0  		0.8509920718002657 		0.4928851815505398  0.28374557155393765 		Uiso   ? 		H 		0.107010
H 1.0  		0.8115469561126523 		0.9511776251226693  0.280820359476062 		Uiso   ? 		H 		0.107010
H 1.0  		0.4938261138662896 		0.3267909715407262  0.2787077063087074 		Uiso   ? 		H 		0.107010
H 1.0  		0.46144693138068976 		0.8255642787046125  0.2793577534371242 		Uiso   ? 		H 		0.107010
H 1.0  		0.9906628259833248 		0.3255642787046124  0.2798452887834368 		Uiso   ? 		H 		0.107010
H 1.0  		0.9620033046156179 		0.8275269872423946  0.2762700295771443 		Uiso   ? 		H 		0.107010
H 1.0  		0.19891762629879284 		0.4352306182531894  0.30227191471381676 		Uiso   ? 		H 		0.114915
H 1.0  		0.1492298443888262 		0.9389106967615309  0.30373452075275453 		Uiso   ? 		H 		0.114915
H 1.0  		0.6913576419053702 		0.4349852796859667  0.2996717262001495 		Uiso   ? 		H 		0.114915
H 1.0  		0.6530286081660517 		0.9337585868498529  0.30243442649592095 		Uiso   ? 		H 		0.114915
H 1.0  		0.4596239323653807 		0.1491658488714426  0.30259693827802514 		Uiso   ? 		H 		0.114912
H 1.0  		0.43170111381415643 		0.628802747791953  0.30405954431696297 		Uiso   ? 		H 		0.114912
H 1.0  		0.9612763058622258 		0.12782139352306185  0.30259693827802514 		Uiso   ? 		H 		0.114912
H 1.0  		0.9316742923551541 		0.6474484789008832  0.3019468911496083 		Uiso   ? 		H 		0.114912
H 1.0  		0.19912140745303725 		0.43351324828263005  0.25611856859622323 		Uiso   ? 		H 		0.114218
H 1.0  		0.14622207279705124 		0.9384200196270855  0.2540059154288686 		Uiso   ? 		H 		0.114218
H 1.0  		0.6925669181013359 		0.4340039254170756  0.2603438749309325 		Uiso   ? 		H 		0.114218
H 1.0  		0.6577866102905815 		0.9381746810598627  0.255956056814119 		Uiso   ? 		H 		0.114218
H 1.0  		0.12705827484342322 		0.32041216879293427  0.07199271947216172 		Uiso   ? 		H 		0.414389
H 1.0  		0.11718474046244998 		0.8633464180569187  0.07101764877953651 		Uiso   ? 		H 		0.414389
H 1.0  		0.6596517193301765 		0.372423945044161  0.0697175545227029 		Uiso   ? 		H 		0.414389
H 1.0  		0.6107267808368576 		0.8589303238469088  0.07004257808691129 		Uiso   ? 		H 		0.414389
H 1.0  		0.46218057398172496 		0.14450441609421003  0.2546559625572854 		Uiso   ? 		H 		0.114215
H 1.0  		0.42785207700523853 		0.6300294406280668  0.25416842721097277 		Uiso   ? 		H 		0.114215
H 1.0  		0.960801043455268 		0.12389597644749756  0.25270582117203494 		Uiso   ? 		H 		0.114215
H 1.0  		0.9279526230686233 		0.6378802747791954  0.25839373354568207 		Uiso   ? 		H 		0.114215
H 1.0  		0.3022316039866421 		0.4374386653581943  0.30259693827802514 		Uiso   ? 		H 		0.111652
H 1.0  		0.26609120088484517 		0.9308145240431797  0.3019468911496083 		Uiso   ? 		H 		0.111652
H 1.0  		0.8130554223264141 		0.4467615309126595  0.3047095914453798 		Uiso   ? 		H 		0.111652
H 1.0  		0.7623232749038975 		0.9300785083415114  0.30243442649592095 		Uiso   ? 		H 		0.111652
H 1.0  		0.4634541459819735 		0.2698724239450442  0.30162186758539994 		Uiso   ? 		H 		0.111652
H 1.0  		0.4305051795319442 		0.7760058881256133  0.30227191471381676 		Uiso   ? 		H 		0.111652
H 1.0  		0.9617823372497137 		0.2814033366045143  0.30438456788117135 		Uiso   ? 		H 		0.111652
H 1.0  		0.9315629557739955 		0.787046123650638  0.306497221048526 		Uiso   ? 		H 		0.111652
H 1.0  		0.292987080990296 		0.43424926398429836  0.255143497903598 		Uiso   ? 		H 		0.110693
H 1.0  		0.26148401785539244 		0.9381746810598627  0.25969382780251565 		Uiso   ? 		H 		0.110693
H 1.0  		0.8204444715305079 		0.44921491658488716  0.2530308447362434 		Uiso   ? 		H 		0.110693
H 1.0  		0.7678722692138777 		0.9288518155053975  0.2557935450320148 		Uiso   ? 		H 		0.110693
H 1.0  		0.4665691690018837 		0.2735525024533857  0.25969382780251565 		Uiso   ? 		H 		0.110693
H 1.0  		0.4307089606861887 		0.7742885181550541  0.26050638671303666 		Uiso   ? 		H 		0.110693
H 1.0  		0.9633817486873916 		0.2735525024533857  0.2600188513667241 		Uiso   ? 		H 		0.110693
H 1.0  		0.9329719967869299 		0.7715897939156036  0.25709363928884843 		Uiso   ? 		H 		0.110693
H 1.0  		0.06473102739408938 		0.1876840039254171  0.30324698540644196 		Uiso   ? 		H 		0.114912
H 1.0  		0.03342102371140404 		0.6817958783120707  0.30958494490850585 		Uiso   ? 		H 		0.114912
H 1.0  		0.5665402444919249 		0.19725220804710503  0.2996717262001495 		Uiso   ? 		H 		0.114912
H 1.0  		0.5362511547490997 		0.6891560353287538  0.30422205609906716 		Uiso   ? 		H 		0.114912
H 1.0  		0.30876938153827793 		0.33194308145240436  0.30178437936750413 		Uiso   ? 		H 		0.114912
H 1.0  		0.2801996845319296 		0.8336604514229637  0.3019468911496083 		Uiso   ? 		H 		0.114912
H 1.0  		0.8143599353465623 		0.33292443572129543  0.30373452075275453 		Uiso   ? 		H 		0.114912
H 1.0  		0.7785238594623944 		0.8324337585868499  0.30438456788117135 		Uiso   ? 		H 		0.114912
H 1.0  		0.2955914442423532 		0.13984298331697742  0.07280527838268275 		Uiso   ? 		H 		0.414364
H 1.0  		0.23517705457756083 		0.6054955839057901  0.07101764877953651 		Uiso   ? 		H 		0.414364
H 1.0  		0.7912932856266423 		0.1422963689892051  0.0705301134332239 		Uiso   ? 		H 		0.414364
H 1.0  		0.7244886364347268 		0.610893032384691  0.07508044333214157 		Uiso   ? 		H 		0.414364
H 1.0  		0.06683847838789299 		0.3397939156035329  0.3060096857022134 		Uiso   ? 		H 		0.111652
H 1.0  		0.03610026683827483 		0.8329244357212955  0.30422205609906716 		Uiso   ? 		H 		0.111652
H 1.0  		0.5670751055070531 		0.338567222767419  0.3050346150095882 		Uiso   ? 		H 		0.111652
H 1.0  		0.5347750256807856 		0.8289990186457312  0.3003217733285663 		Uiso   ? 		H 		0.111652
H 1.0  		0.16478317930422687 		0.18719332679097156  0.3029219618422336 		Uiso   ? 		H 		0.111652
H 1.0  		0.13463619512309036 		0.6891560353287538  0.3048721032274839 		Uiso   ? 		H 		0.111652
H 1.0  		0.6655674661249267 		0.1862119725220805  0.30308447362433777 		Uiso   ? 		H 		0.111652
H 1.0  		0.6396066919352529 		0.6935721295387636  0.30080930867487893 		Uiso   ? 		H 		0.111652
H 1.0  		0.0670315378401113 		0.3299803729146222  0.2603438749309325 		Uiso   ? 		H 		0.110693
H 1.0  		0.03933125481970878 		0.8415112855740924  0.25368089186466014 		Uiso   ? 		H 		0.110693
H 1.0  		0.5695244956952621 		0.33071638861629055  0.25871875710989045 		Uiso   ? 		H 		0.110693
H 1.0  		0.5354627827753764 		0.8329244357212955  0.25693112750674424 		Uiso   ? 		H 		0.110693
H 1.0  		0.16450499268676277 		0.1862119725220805  0.2608314102772451 		Uiso   ? 		H 		0.110693
H 1.0  		0.1400886597069615 		0.6928361138370952  0.2624565280982871 		Uiso   ? 		H 		0.110693
H 1.0  		0.6556747373636561 		0.17492639842983318  0.25319335651834757 		Uiso   ? 		H 		0.110693
H 1.0  		0.6334838973235677 		0.6894013738959766  0.25985633958461984 		Uiso   ? 		H 		0.110693
H 1.0  		0.34739729562452787 		0.02968596663395486  0.25611856859622323 		Uiso   ? 		H 		0.110692
H 1.0  		0.30415675163812744 		0.5296859666339548  0.25709363928884843 		Uiso   ? 		H 		0.110692
H 1.0  		0.8403936844660334 		0.031403336604514234  0.2556310332499106 		Uiso   ? 		H 		0.110692
H 1.0  		0.8077054775666916 		0.5350834151128558  0.25969382780251565 		Uiso   ? 		H 		0.110692
H 1.0  		0.3725211577144329 		0.29072620215897943  0.3038970325348588 		Uiso   ? 		H 		0.114912
H 1.0  		0.3192129334401574 		0.7688910696761532  0.2996717262001495 		Uiso   ? 		H 		0.114912
H 1.0  		0.8587686704422182 		0.2725711481844946  0.30422205609906716 		Uiso   ? 		H 		0.114912
H 1.0  		0.8256796065991379 		0.7750245338567223  0.3019468911496083 		Uiso   ? 		H 		0.114912
H 1.0  		0.2087910574561445 		0.12561334641805694  0.25530600968570216 		Uiso   ? 		H 		0.110693
H 1.0  		0.18417094332209882 		0.6339548577036311  0.2600188513667241 		Uiso   ? 		H 		0.110693
H 1.0  		0.7209072709884902 		0.13837095191364082  0.2590437806740989 		Uiso   ? 		H 		0.110693
H 1.0  		0.6837218215153059 		0.6351815505397449  0.2603438749309325 		Uiso   ? 		H 		0.110693
H 1.0  		0.39238173596690495 		0.21442590775269874  0.07231774303637013 		Uiso   ? 		H 		0.414272
H 1.0  		0.3548865812211415 		0.7399411187438666  0.0757304904605584 		Uiso   ? 		H 		0.414272
H 1.0  		0.9009163776057707 		0.22129538763493622  0.07443039620372477 		Uiso   ? 		H 		0.414272
H 1.0  		0.8314277192751238 		0.7053483807654564  0.07004257808691129 		Uiso   ? 		H 		0.414272
H 1.0  		0.3473644496596123 		0.029195289499509326  0.30340949718854615 		Uiso   ? 		H 		0.111652
H 1.0  		0.3074514233807549 		0.532875368007851  0.3011343322390873 		Uiso   ? 		H 		0.111652
H 1.0  		0.8402710141397591 		0.031157998037291464  0.3014593558032957 		Uiso   ? 		H 		0.111652
H 1.0  		0.8035849595050601 		0.530667320902846  0.30129684402119156 		Uiso   ? 		H 		0.111652
H 1.0  		0.2231964476893965 		0.14082433758586851  0.3045470796632756 		Uiso   ? 		H 		0.111653
H 1.0  		0.18086755804608304 		0.6290480863591758  0.3068222446127344 		Uiso   ? 		H 		0.111653
H 1.0  		0.7219610308932659 		0.13665358194308147  0.30227191471381676 		Uiso   ? 		H 		0.111653
H 1.0  		0.684742735455166 		0.63297350343474  0.30259693827802514 		Uiso   ? 		H 		0.111653
H 1.0  		0.3538819046697531 		0.4043179587831207  0.1659245295283908 		Uiso   ? 		H 		0.032046
H 1.0  		0.3283441116867071 		0.9052993130520118  0.17600026001885136 		Uiso   ? 		H 		0.032046
H 1.0  		0.8630211844066017 		0.41069676153091267  0.17031234764520428 		Uiso   ? 		H 		0.032046
H 1.0  		0.8248764965861131 		0.8979391560353289  0.17031234764520428 		Uiso   ? 		H 		0.032046
H 1.0  		0.08965247004742435 		0.40284592737978414  0.16949978873468324 		Uiso   ? 		H 		0.032048
H 1.0  		0.06593730489171501 		0.9040726202158981  0.17031234764520428 		Uiso   ? 		H 		0.032048
H 1.0  		0.6002376530993986 		0.4070166830225712  0.16933727695257905 		Uiso   ? 		H 		0.032048
H 1.0  		0.5633303902436784 		0.9048086359175663  0.16803718269574544 		Uiso   ? 		H 		0.032048
H 1.0  		0.09412234793492279 		0.14106967615309127  0.17405011863360093 		Uiso   ? 		H 		0.032035
H 1.0  		0.061964373670344075 		0.6415603532875369  0.17372509506939252 		Uiso   ? 		H 		0.032035
H 1.0  		0.5982187335650269 		0.14671246319921494  0.16738713556732862 		Uiso   ? 		H 		0.032035
H 1.0  		0.5577473258826035 		0.6420510304219824  0.1782754249683102 		Uiso   ? 		H 		0.032035
H 1.0  		0.3914118103254484 		0.1189892051030422  0.06857997204797348 		Uiso   ? 		H 		0.414359
H 1.0  		0.3560395942873752 		0.6381256133464182  0.0697175545227029 		Uiso   ? 		H 		0.414359
H 1.0  		0.8651261528201735 		0.11359175662414134  0.07166769590795333 		Uiso   ? 		H 		0.414359
H 1.0  		0.8364927720526317 		0.6207065750736016  0.0708551369974323 		Uiso   ? 		H 		0.414359
H 1.0  		0.4404329688740116 		0.32752698724239454  0.16949978873468324 		Uiso   ? 		H 		0.032041
H 1.0  		0.40114670495602645 		0.8231108930323847  0.17616277180095558 		Uiso   ? 		H 		0.032041
H 1.0  		0.9427704104379724 		0.32752698724239454  0.17079988299151685 		Uiso   ? 		H 		0.032041
H 1.0  		0.904187322512717 		0.8240922473012758  0.18136314882829005 		Uiso   ? 		H 		0.032041
H 1.0  		0.4306395620899467 		0.060598626104023556  0.166087041310495 		Uiso   ? 		H 		0.032045
H 1.0  		0.39956819369505925 		0.5598626104023553  0.168524718042058 		Uiso   ? 		H 		0.032045
H 1.0  		0.9363614997578935 		0.06354268891069677  0.16641206487470342 		Uiso   ? 		H 		0.032045
H 1.0  		0.8950226862581623 		0.5554465161923454  0.17128741833782948 		Uiso   ? 		H 		0.032045
H 1.0  		0.22108092961316786 		0.04097154072620216  0.25774368641726525 		Uiso   ? 		H 		0.114215
H 1.0  		0.20522405156259688 		0.5294406280667321  0.25806870998147363 		Uiso   ? 		H 		0.114215
H 1.0  		0.7275040351052067 		0.03851815505397449  0.2564435921604316 		Uiso   ? 		H 		0.114215
H 1.0  		0.6954405823980994 		0.5277232580961727  0.2566061039425358 		Uiso   ? 		H 		0.114215
H 1.0  		0.04152012631234751 		0.2917075564278705  0.12025871875710988 		Uiso   ? 		H 		0.030372
H 1.0  		0.01935141053514855 		0.798577036310108  0.11473331816556699 		Uiso   ? 		H 		0.030372
H 1.0  		0.5565301546435822 		0.30642787046123654  0.11570838885819221 		Uiso   ? 		H 		0.030372
H 1.0  		0.5174543772445922 		0.7956329735034348  0.11457080638346279 		Uiso   ? 		H 		0.030372
H 1.0  		0.1715294352062199 		0.06894013738959766  0.16819969447784963 		Uiso   ? 		H 		0.032044
H 1.0  		0.13756224384380558 		0.5598626104023553  0.1720999772483505 		Uiso   ? 		H 		0.032044
H 1.0  		0.6724605247847214 		0.06697742885181551  0.168524718042058 		Uiso   ? 		H 		0.032044
H 1.0  		0.6405391776393026 		0.5662414131501472  0.16819969447784963 		Uiso   ? 		H 		0.032044
H 1.0  		0.3568253460493712 		0.3562315996074583  0.27740761205187375 		Uiso   ? 		H 		0.106349
H 1.0  		0.32837631120065935 		0.8518155053974485  0.280820359476062 		Uiso   ? 		H 		0.106349
H 1.0  		0.8586044062097661 		0.3478900883218842  0.2842331069002503 		Uiso   ? 		H 		0.106349
H 1.0  		0.8213049999436959 		0.8461727183513249  0.2804953359118536 		Uiso   ? 		H 		0.106349
H 1.0  		0.042512279440315236 		0.14622178606476938  0.2803328241297494 		Uiso   ? 		H 		0.106349
H 1.0  		0.0030463667996128985 		0.6422963689892052  0.27919524165501997 		Uiso   ? 		H 		0.106349
H 1.0  		0.531576512476295 		0.14474975466143278  0.2822829655149998 		Uiso   ? 		H 		0.106349
H 1.0  		0.5040190158764184 		0.642541707556428  0.2788702180908116 		Uiso   ? 		H 		0.106349
H 1.0  		0.22657563455418028 		0.02306182531894014  0.11587090064029641 		Uiso   ? 		H 		0.031853
H 1.0  		0.19350198960923898 		0.5225711481844946  0.11359573569083757 		Uiso   ? 		H 		0.031853
H 1.0  		0.7339559702248857 		0.023797841020608442  0.11343322390873337 		Uiso   ? 		H 		0.031853
H 1.0  		0.6894974365091312 		0.5230618253189402  0.115545877076088 		Uiso   ? 		H 		0.031853
H 1.0  		0.38258815714347066 		0.3363591756624142  0.2803328241297494 		Uiso   ? 		H 		0.106348
H 1.0  		0.34850700898817055 		0.8287536800785085  0.2788702180908116 		Uiso   ? 		H 		0.106348
H 1.0  		0.8812937537822593 		0.3265456329735035  0.28195794195079144 		Uiso   ? 		H 		0.106348
H 1.0  		0.8442899612004299 		0.829244357212954  0.2806578476939578 		Uiso   ? 		H 		0.106348
H 1.0  		0.4779923162004365 		0.16167811579980376  0.1148958299476712 		Uiso   ? 		H 		0.031765
H 1.0  		0.4461386691534868 		0.6683022571148186  0.11213312965189974 		Uiso   ? 		H 		0.031765
H 1.0  		0.9822616451885071 		0.17149165848871442  0.11684597133292163 		Uiso   ? 		H 		0.031765
H 1.0  		0.9432254191191832 		0.6565260058881257  0.11457080638346279 		Uiso   ? 		H 		0.031765
H 1.0  		0.045413446054918254 		0.1974975466143278  0.1213963012318393 		Uiso   ? 		H 		0.031771
H 1.0  		0.021836370123622106 		0.6960255152109913  0.11635843598660901 		Uiso   ? 		H 		0.031771
H 1.0  		0.5601540013020772 		0.21295387634936214  0.11473331816556699 		Uiso   ? 		H 		0.031771
H 1.0  		0.5167559328558491 		0.7058390578999019  0.11619592420450481 		Uiso   ? 		H 		0.031771
H 1.0  		0.1894471978853128 		0.44136408243375863  0.11213312965189974 		Uiso   ? 		H 		0.031847
H 1.0  		0.17314521436522445 		0.9438174681059863  0.10969545292033672 		Uiso   ? 		H 		0.031847
H 1.0  		0.7052810643669137 		0.4509322865554466  0.11359573569083757 		Uiso   ? 		H 		0.031847
H 1.0  		0.6685930015635769 		0.9440628066732091  0.10969545292033672 		Uiso   ? 		H 		0.031847
H 1.0  		0.2212451594377461 		0.04342492639842983  0.30243442649592095 		Uiso   ? 		H 		0.114912
H 1.0  		0.19006051510881 		0.5203631010794898  0.3068222446127344 		Uiso   ? 		H 		0.114912
H 1.0  		0.7382976965075382 		0.02993130520117763  0.2996717262001495 		Uiso   ? 		H 		0.114912
H 1.0  		0.7058045572290523 		0.5301766437684005  0.2996717262001495 		Uiso   ? 		H 		0.114912
H 1.0  		0.17349151397564422 		0.018891069676153092  0.27740761205187375 		Uiso   ? 		H 		0.106349
H 1.0  		0.16163115635062986 		0.4813542688910697  0.27919524165501997 		Uiso   ? 		H 		0.106349
H 1.0  		0.6910715946527244 		0.019627085377821395  0.2811453830402704 		Uiso   ? 		H 		0.106349
H 1.0  		0.6565487109142191 		0.48478900883218845  0.2813078948223746 		Uiso   ? 		H 		0.106349
H 1.0  		0.16950836987171491 		0.11334641805691856  0.2834205479897292 		Uiso   ? 		H 		0.107009
H 1.0  		0.13590449229201051 		0.6160451422963691  0.2798452887834368 		Uiso   ? 		H 		0.107009
H 1.0  		0.673898361017422 		0.11702649656526007  0.281632918386583 		Uiso   ? 		H 		0.107009
H 1.0  		0.6334685128333026 		0.6145731108930325  0.2834205479897292 		Uiso   ? 		H 		0.107009
H 1.0  		0.3457706498333614 		0.9894504416094212  0.280007800565541 		Uiso   ? 		H 		0.107010
H 1.0  		0.34133930563659354 		0.516928361138371  0.27578249423083173 		Uiso   ? 		H 		0.107010
H 1.0  		0.8434593488695655 		0.9946025515210992  0.2788702180908116 		Uiso   ? 		H 		0.107010
H 1.0  		0.8511180776049783 		0.5296859666339548  0.2817954301686872 		Uiso   ? 		H 		0.107010
H 1.0  		0.36422314319472715 		0.2826300294406281  0.2592062924562031 		Uiso   ? 		H 		0.114215
H 1.0  		0.32858213493141547 		0.7787046123650638  0.25693112750674424 		Uiso   ? 		H 		0.114215
H 1.0  		0.8663152441061395 		0.28213935230618253  0.25839373354568207 		Uiso   ? 		H 		0.114215
H 1.0  		0.8400280184359471 		0.7909715407262022  0.2540059154288686 		Uiso   ? 		H 		0.114215
H 1.0  		0.14675333036939037 		0.13370951913640827  0.28293301264341664 		Uiso   ? 		H 		0.107009
H 1.0  		0.11300265003188442 		0.6373895976447498  0.28260798907920825 		Uiso   ? 		H 		0.107009
H 1.0  		0.6488869907791067 		0.13542688910696765  0.2814704066044788 		Uiso   ? 		H 		0.107009
H 1.0  		0.612266628074239 		0.6359175662414133  0.2842331069002503 		Uiso   ? 		H 		0.107009
H 1.0  		0.03208319031474646 		0.35230618253189405  0.27854519452660315 		Uiso   ? 		H 		0.107010
H 1.0  		0.0026702199226175116 		0.8493621197252209  0.27919524165501997 		Uiso   ? 		H 		0.107010
H 1.0  		0.5355139431131493 		0.3464180569185476  0.2803328241297494 		Uiso   ? 		H 		0.107010
H 1.0  		0.5023920333051534 		0.8483807654563299  0.281632918386583 		Uiso   ? 		H 		0.107010
H 1.0  		0.36128514868580686 		0.14033366045142295  0.2772451002697695 		Uiso   ? 		H 		0.031300
H 1.0  		0.3830988169113238 		0.6344455348380765  0.27952026521922835 		Uiso   ? 		H 		0.031300
H 1.0  		0.9108647918615577 		0.12389597644749756  0.2798452887834368 		Uiso   ? 		H 		0.031300
H 1.0  		0.8511033051578026 		0.586604514229637  0.2796827770013326 		Uiso   ? 		H 		0.031300
H 1.0  		0.39115836818260097 		0.2485279685966634  0.2803328241297494 		Uiso   ? 		H 		0.031299
H 1.0  		0.3496157735286252 		0.7421491658488715  0.2813078948223746 		Uiso   ? 		H 		0.031299
H 1.0  		0.9109270794972028 		0.24386653581943082  0.2803328241297494 		Uiso   ? 		H 		0.031299
H 1.0  		0.8772816424191943 		0.7443572129538764  0.28017031234764517 		Uiso   ? 		H 		0.031299
H 1.0  		0.2643614305250808 		0.13518155053974487  0.280820359476062 		Uiso   ? 		H 		0.031300
H 1.0  		0.24974599377655382 		0.6469578017664378  0.2803328241297494 		Uiso   ? 		H 		0.031300
H 1.0  		0.768595905379598 		0.13812561334641807  0.280007800565541 		Uiso   ? 		H 		0.031300
H 1.0  		0.7201750589208771 		0.6162904808635918  0.28293301264341664 		Uiso   ? 		H 		0.031300
H 1.0  		0.12222787542431154 		0.31967615309126596  0.2806578476939578 		Uiso   ? 		H 		0.031300
H 1.0  		0.09313264297931295 		0.8135426889106968  0.2790327298729158 		Uiso   ? 		H 		0.031300
H 1.0  		0.6177896194155498 		0.31844946025515214  0.2780576591802906 		Uiso   ? 		H 		0.031300
H 1.0  		0.6279924934531198 		0.8216388616290482  0.2814704066044788 		Uiso   ? 		H 		0.031300
H 1.0  		0.24415826662724002 		0.3174681059862611  0.2788702180908116 		Uiso   ? 		H 		0.031299
H 1.0  		0.19308625699470344 		0.8115799803729147  0.280007800565541 		Uiso   ? 		H 		0.031299
H 1.0  		0.7835776817184084 		0.37463199214916587  0.2803328241297494 		Uiso   ? 		H 		0.031299
H 1.0  		0.7032377371380236 		0.8140333660451424  0.2806578476939578 		Uiso   ? 		H 		0.031299
H 1.0  		0.12819586901151803 		0.221540726202159  0.28195794195079144 		Uiso   ? 		H 		0.031300
H 1.0  		0.12860186315508915 		0.7323356231599608  0.2788702180908116 		Uiso   ? 		H 		0.031300
H 1.0  		0.6659669613509906 		0.2350343473994112  0.2822829655149998 		Uiso   ? 		H 		0.031300
H 1.0  		0.5984718660370093 		0.7171246319921493  0.27919524165501997 		Uiso   ? 		H 		0.031300
H 1.0  		0.47972239623106566 		0.257360157016683  0.11473331816556699 		Uiso   ? 		H 		0.030374
H 1.0  		0.4447972938311476 		0.7688910696761532  0.11684597133292163 		Uiso   ? 		H 		0.030374
H 1.0  		0.9827013381952006 		0.27011776251226693  0.11928364806448466 		Uiso   ? 		H 		0.030374
H 1.0  		0.9454240561920199 		0.7607948969578018  0.1148958299476712 		Uiso   ? 		H 		0.030374
H 1.0  		0.06355660533167726 		0.19553483807654568  0.26310657522670394 		Uiso   ? 		H 		0.114215
H 1.0  		0.032233190919490784 		0.6989695780176645  0.2608314102772451 		Uiso   ? 		H 		0.114215
H 1.0  		0.5671623096566843 		0.20019627085377822  0.25774368641726525 		Uiso   ? 		H 		0.114215
H 1.0  		0.5309253768287783 		0.6984789008832188  0.2592062924562031 		Uiso   ? 		H 		0.114215
H 1.0  		0.30153319400577294 		0.2698724239450442  0.20427731010498257 		Uiso   ? 		H 		0.138631
H 1.0  		0.2660651291004278 		0.7701177625122669  0.2049273572333994 		Uiso   ? 		H 		0.138631
H 1.0  		0.79844230341739 		0.26496565260058885  0.20704001040075404 		Uiso   ? 		H 		0.138631
H 1.0  		0.7697914955830715 		0.7686457311089304  0.20297721584814898 		Uiso   ? 		H 		0.138631
H 1.0  		0.33401482749977374 		0.018645731108930325  0.11603341242240062 		Uiso   ? 		H 		0.030436
H 1.0  		0.2930547466808912 		0.5193817468105987  0.11180810608769134 		Uiso   ? 		H 		0.030436
H 1.0  		0.8416994903881082 		0.025515210991167814  0.11034550004875353 		Uiso   ? 		H 		0.030436
H 1.0  		0.7876197091637966 		0.5191364082433759  0.11310820034452496 		Uiso   ? 		H 		0.030436
H 1.0  		0.21396495693593892 		0.9838076545632974  0.20070205089869017 		Uiso   ? 		H 		0.138636
H 1.0  		0.21209294338299037 		0.4892051030421983  0.19810186238502292 		Uiso   ? 		H 		0.138636
H 1.0  		0.7098859983726115 		0.9815996074582927  0.1974518152566061 		Uiso   ? 		H 		0.138636
H 1.0  		0.7169474752336293 		0.48871442590775277  0.19972698020606494 		Uiso   ? 		H 		0.138636
H 1.0  		0.015085692288507258 		0.20314033366045142  0.20671498683654563 		Uiso   ? 		H 		0.138631
H 1.0  		0.9794078217230042 		0.6859666339548577  0.1992394448597523 		Uiso   ? 		H 		0.138631
H 1.0  		0.5173245959577212 		0.20166830225711482  0.20151460980921115 		Uiso   ? 		H 		0.138631
H 1.0  		0.4800908816214823 		0.7009322865554466  0.20313972763025318 		Uiso   ? 		H 		0.138631
H 1.0  		0.13891914128790542 		0.2230127576054956  0.07589300224266259 		Uiso   ? 		H 		0.414262
H 1.0  		0.14024012525300195 		0.7585868498527969  0.07183020769005752 		Uiso   ? 		H 		0.414262
H 1.0  		0.660001691199133 		0.2379784102060844  0.07264276660057854 		Uiso   ? 		H 		0.414262
H 1.0  		0.6269541868543569 		0.7426398429833171  0.07134267234374492 		Uiso   ? 		H 		0.414262
H 1.0  		0.2346825289745577 		0.20289499509322867  0.2101277342607339 		Uiso   ? 		H 		0.139331
H 1.0  		0.20709419457840322 		0.7065750736015702  0.2112653167354633 		Uiso   ? 		H 		0.139331
H 1.0  		0.7400780151619859 		0.2073110893032385  0.21045275782494227 		Uiso   ? 		H 		0.139331
H 1.0  		0.6936875940221217 		0.6967615309126595  0.20671498683654563 		Uiso   ? 		H 		0.139331
O 1.0  		0.3250397087717556 		0.1702649656526006  0.7712809178665453 		Uiso   ? 		O 		-0.973317
O 1.0  		0.29552149512012915 		0.6705103042198235  0.7703058471739201 		Uiso   ? 		O 		-0.973317
O 1.0  		0.8288317671842305 		0.16977428851815507  0.7699808236097118 		Uiso   ? 		O 		-0.973317
O 1.0  		0.7939596268434799 		0.667811579980373  0.7690057529170865 		Uiso   ? 		O 		-0.973317
O 1.0  		0.14326753852743468 		0.30225711481844947  0.7685182175707739 		Uiso   ? 		O 		-0.973512
O 1.0  		0.10580390243678633 		0.7980863591756625  0.7743686417265251 		Uiso   ? 		O 		-0.973512
O 1.0  		0.6414187700999328 		0.2968596663395486  0.7709558943023368 		Uiso   ? 		O 		-0.973512
O 1.0  		0.6080515196393885 		0.7983316977428853  0.7732310592517957 		Uiso   ? 		O 		-0.973512
O 1.0  		0.2571083591531408 		0.35696761530912663  0.8076835570578866 		Uiso   ? 		O 		-1.123919
O 1.0  		0.22360101129954552 		0.8547595682041218  0.806383462801053 		Uiso   ? 		O 		-1.123919
O 1.0  		0.759748119766093 		0.3567222767419039  0.8081710924041993 		Uiso   ? 		O 		-1.123919
O 1.0  		0.7242713413273596 		0.8552502453385673  0.8083336041863035 		Uiso   ? 		O 		-1.123919
O 1.0  		0.20801738911384907 		0.36800785083415116  0.7720934767770663 		Uiso   ? 		O 		-0.974643
O 1.0  		0.17133803984390056 		0.8628557409224731  0.7720934767770663 		Uiso   ? 		O 		-0.974643
O 1.0  		0.7079101376857136 		0.3648184494602552  0.7724185003412747 		Uiso   ? 		O 		-0.974643
O 1.0  		0.6736513489763342 		0.8640824337585868  0.7737185945981083 		Uiso   ? 		O 		-0.974643
O 1.0  		0.20774325324153442 		0.30201177625122677  0.7690057529170865 		Uiso   ? 		O 		-0.973578
O 1.0  		0.17183277189414695 		0.7988223748773308  0.7716059414307537 		Uiso   ? 		O 		-0.973578
O 1.0  		0.7079952992588333 		0.29784102060843964  0.771118406084441 		Uiso   ? 		O 		-0.973578
O 1.0  		0.6738022024792851 		0.7980863591756625  0.7714434296486494 		Uiso   ? 		O 		-0.973578
O 1.0  		0.13934208808665938 		0.29440628066732094  0.8869893067247375 		Uiso   ? 		O 		-0.975983
O 1.0  		0.11095203980302826 		0.7956329735034348  0.8899145188026131 		Uiso   ? 		O 		-0.975983
O 1.0  		0.6395787152058194 		0.2931795878312071  0.8899145188026131 		Uiso   ? 		O 		-0.975983
O 1.0  		0.60453563967574 		0.7934249263984299  0.8876393538531543 		Uiso   ? 		O 		-0.975983
O 1.0  		0.20381375205560967 		0.3591756624141315  0.8894269834563004 		Uiso   ? 		O 		-0.957881
O 1.0  		0.1769198801187966 		0.8621197252208047  0.8886144245457795 		Uiso   ? 		O 		-0.957881
O 1.0  		0.7045410604798666 		0.35893032384690876  0.8894269834563004 		Uiso   ? 		O 		-0.957881
O 1.0  		0.6701354690126855 		0.8591756624141316  0.8899145188026131 		Uiso   ? 		O 		-0.957881
O 1.0  		0.203596594579738 		0.29244357212953875  0.8871518185068417 		Uiso   ? 		O 		-0.919418
O 1.0  		0.1772503823444647 		0.7956329735034348  0.8876393538531543 		Uiso   ? 		O 		-0.919418
O 1.0  		0.7046262220529863 		0.29195289499509325  0.8876393538531543 		Uiso   ? 		O 		-0.919418
O 1.0  		0.6716839609677077 		0.7934249263984299  0.8876393538531543 		Uiso   ? 		O 		-0.919418
O 1.0  		0.07327370170750633 		0.2200686947988224  0.8504241557512918 		Uiso   ? 		O 		-0.568542
O 1.0  		0.04243896043177897 		0.7181059862610403  0.8574121623817725 		Uiso   ? 		O 		-0.568542
O 1.0  		0.573558593689721 		0.2163886162904809  0.8522117853544381 		Uiso   ? 		O 		-0.568542
O 1.0  		0.5412296842358134 		0.7190873405299314  0.852049273572334 		Uiso   ? 		O 		-0.568542
O 1.0  		0.07572036846036641 		0.30740922473012755  0.8019956446842395 		Uiso   ? 		O 		-0.595445
O 1.0  		0.04100374441080562 		0.8061825318940138  0.807196021711574 		Uiso   ? 		O 		-0.595445
O 1.0  		0.5758189063551133 		0.3088812561334642  0.802320668248448 		Uiso   ? 		O 		-0.595445
O 1.0  		0.543137404820522 		0.8078999018645732  0.803133227158969 		Uiso   ? 		O 		-0.595445
O 1.0  		0.19778888329558192 		0.22473012757605498  0.7990704326063639 		Uiso   ? 		O 		-0.596676
O 1.0  		0.16461670045589372 		0.7227674190382729  0.8003705268631975 		Uiso   ? 		O 		-0.596676
O 1.0  		0.6965863124643669 		0.22105004906771347  0.8002080150810934 		Uiso   ? 		O 		-0.596676
O 1.0  		0.665843403718636 		0.7252208047105005  0.7989079208242598 		Uiso   ? 		O 		-0.596676
O 1.0  		0.28223766811374357 		0.42762512266928365  0.8577371859459809 		Uiso   ? 		O 		-0.564468
O 1.0  		0.25360227917756395 		0.9283611383709519  0.8541619267396886 		Uiso   ? 		O 		-0.564468
O 1.0  		0.7805048646477654 		0.42713444553483815  0.8559495563428349 		Uiso   ? 		O 		-0.564468
O 1.0  		0.7473983737379084 		0.926153091265947  0.8557870445607306 		Uiso   ? 		O 		-0.564468
O 1.0  		0.19655404413466684 		0.4300785083415113  0.8572496505996685 		Uiso   ? 		O 		-0.562201
O 1.0  		0.16680590872863088 		0.9268891069676154  0.8575746741638769 		Uiso   ? 		O 		-0.562201
O 1.0  		0.6975749580745269 		0.4278704612365064  0.8570871388175643 		Uiso   ? 		O 		-0.562201
O 1.0  		0.6625560149759746 		0.9268891069676154  0.8569246270354599 		Uiso   ? 		O 		-0.562201
O 1.0  		0.07249138864757027 		0.3052011776251227  0.8531868560470633 		Uiso   ? 		O 		-0.562158
O 1.0  		0.042131909778800936 		0.8071638861629049  0.8578996977280852 		Uiso   ? 		O 		-0.562158
O 1.0  		0.5747718518150883 		0.30593719332679103  0.8535118796112717 		Uiso   ? 		O 		-0.562158
O 1.0  		0.5381910404398866 		0.8022571148184495  0.8541619267396886 		Uiso   ? 		O 		-0.562158
O 1.0  		0.19694560990980126 		0.2200686947988224  0.8504241557512918 		Uiso   ? 		O 		-0.568705
O 1.0  		0.16405161368757715 		0.7190873405299314  0.852049273572334 		Uiso   ? 		O 		-0.568705
O 1.0  		0.6978284346252481 		0.22055937193326794  0.8510742028797087 		Uiso   ? 		O 		-0.568705
O 1.0  		0.6632344809019615 		0.7195780176643769  0.8513992264439171 		Uiso   ? 		O 		-0.568705
O 1.0  		0.45999122807749226 		0.2514720314033366  0.8515617382260213 		Uiso   ? 		O 		-0.569101
O 1.0  		0.4331851723334 		0.7477919528949952  0.852049273572334 		Uiso   ? 		O 		-0.569101
O 1.0  		0.9622958236765375 		0.25098135426889107  0.8518867617902297 		Uiso   ? 		O 		-0.569101
O 1.0  		0.9174431383817954 		0.7443572129538764  0.8559495563428349 		Uiso   ? 		O 		-0.569101
O 1.0  		0.33803612680782097 		0.04538763493621198  0.8559495563428349 		Uiso   ? 		O 		-0.568037
O 1.0  		0.30816532107551076 		0.5419528949950932  0.8562745799070433 		Uiso   ? 		O 		-0.568037
O 1.0  		0.8389343704214066 		0.0429342492639843  0.8567621152533559 		Uiso   ? 		O 		-0.568037
O 1.0  		0.8009800530256614 		0.5377821393523062  0.8533493678291676 		Uiso   ? 		O 		-0.568037
O 1.0  		0.14615869870672263 		0.24386653581943082  0.8478239672376247 		Uiso   ? 		O 		-1.118990
O 1.0  		0.11584748470100786 		0.7433758586849853  0.8518867617902297 		Uiso   ? 		O 		-1.118990
O 1.0  		0.6466078205135155 		0.242639842983317  0.8489615497123542 		Uiso   ? 		O 		-1.118990
O 1.0  		0.6136239999299329 		0.7419038272816487  0.8486365261481458 		Uiso   ? 		O 		-1.118990
O 1.0  		0.2507959437912972 		0.1658488714425908  0.8523742971365423 		Uiso   ? 		O 		-0.564517
O 1.0  		0.22438403962619258 		0.6680569185475957  0.8533493678291676 		Uiso   ? 		O 		-0.564517
O 1.0  		0.7555365188490503 		0.16683022571148187  0.8523742971365423 		Uiso   ? 		O 		-0.564517
O 1.0  		0.7082961189586547 		0.6562806673209028  0.8513992264439171 		Uiso   ? 		O 		-0.564517
O 1.0  		0.3359265988296318 		0.04244357212953877  0.8052458803263236 		Uiso   ? 		O 		-0.595964
O 1.0  		0.30375991103166466 		0.541216879293425  0.8052458803263236 		Uiso   ? 		O 		-0.595964
O 1.0  		0.8376506887622216 		0.041216879293424935  0.8052458803263236 		Uiso   ? 		O 		-0.595964
O 1.0  		0.8026143185968926 		0.5368007850834152  0.8032957389410731 		Uiso   ? 		O 		-0.595964
O 1.0  		0.2502637029878963 		0.16265947006869483  0.8010205739916144 		Uiso   ? 		O 		-0.594740
O 1.0  		0.22345965541244178 		0.6653581943081454  0.802320668248448 		Uiso   ? 		O 		-0.594740
O 1.0  		0.753876112677654 		0.16265947006869483  0.8005330386453018 		Uiso   ? 		O 		-0.594740
O 1.0  		0.7139436511633821 		0.6565260058881257  0.8011830857737184 		Uiso   ? 		O 		-0.594740
O 1.0  		0.10395064326041498 		0.3370951913640825  0.7706308707381284 		Uiso   ? 		O 		-0.605963
O 1.0  		0.06847386482168155 		0.835623159960746  0.7761562713296714 		Uiso   ? 		O 		-0.605963
O 1.0  		0.6054709520387602 		0.33758586849852795  0.7707933825202327 		Uiso   ? 		O 		-0.605963
O 1.0  		0.572340328697376 		0.8378312070657509  0.7720934767770663 		Uiso   ? 		O 		-0.605963
O 1.0  		0.1712686068397848 		0.2269381746810599  0.7665680761855234 		Uiso   ? 		O 		-0.605756
O 1.0  		0.1338619491455793 		0.7220314033366046  0.7704683589560242 		Uiso   ? 		O 		-0.605756
O 1.0  		0.6690933869317642 		0.2230127576054956  0.7686807293528781 		Uiso   ? 		O 		-0.605756
O 1.0  		0.6361424123130972 		0.7227674190382729  0.7685182175707739 		Uiso   ? 		O 		-0.605756
O 1.0  		0.28181135142867736 		0.3974484789008833  0.8879643774173628 		Uiso   ? 		O 		-0.543531
O 1.0  		0.2548517875620329 		0.8994111874386654  0.8847141417752786 		Uiso   ? 		O 		-0.543531
O 1.0  		0.7776184360724641 		0.39671246319921494  0.8878018656352585 		Uiso   ? 		O 		-0.543531
O 1.0  		0.7442096261136157 		0.8959764474975467  0.8869893067247375 		Uiso   ? 		O 		-0.543531
O 1.0  		0.09994408199166946 		0.33120706575073605  0.885039165339487 		Uiso   ? 		O 		-0.553762
O 1.0  		0.07194617711838835 		0.8319430814524044  0.8912146130594467 		Uiso   ? 		O 		-0.553762
O 1.0  		0.6011050933245803 		0.3326790971540727  0.8863392595963206 		Uiso   ? 		O 		-0.553762
O 1.0  		0.5639524898163117 		0.8299803729146222  0.8868267949426333 		Uiso   ? 		O 		-0.553762
O 1.0  		0.28260036985336395 		0.30765456329735036  0.8530243442649591 		Uiso   ? 		O 		-0.563306
O 1.0  		0.2531961129946234 		0.8064278704612365  0.8518867617902297 		Uiso   ? 		O 		-0.563306
O 1.0  		0.7809158312504404 		0.30471050049067716  0.8533493678291676 		Uiso   ? 		O 		-0.563306
O 1.0  		0.7461093828395209 		0.803729146221786  0.8533493678291676 		Uiso   ? 		O 		-0.563306
O 1.0  		0.16563448536455866 		0.21736997055937196  0.8814639061331947 		Uiso   ? 		O 		-0.569471
O 1.0  		0.13946792185200255 		0.7200686947988224  0.885851724250008 		Uiso   ? 		O 		-0.569471
O 1.0  		0.6706860930046915 		0.21982335623159963  0.8835765593005492 		Uiso   ? 		O 		-0.569471
O 1.0  		0.6356430174746119 		0.7200686947988224  0.8835765593005492 		Uiso   ? 		O 		-0.569471
O 1.0  		0.43240847818353106 		0.25368007850834157  0.8830890239542366 		Uiso   ? 		O 		-0.566189
O 1.0  		0.4064195552250544 		0.7495093228655546  0.8837390710826534 		Uiso   ? 		O 		-0.566189
O 1.0  		0.9337075787408551 		0.2524533856722277  0.8829265121721324 		Uiso   ? 		O 		-0.566189
O 1.0  		0.8879392227657505 		0.744847890088322  0.8848766535573829 		Uiso   ? 		O 		-0.566189
O 1.0  		0.3666256990533038 		0.07409224730127577  0.8879643774173628 		Uiso   ? 		O 		-0.552228
O 1.0  		0.33496511145857255 		0.5709028459273798  0.8874768420710502 		Uiso   ? 		O 		-0.552228
O 1.0  		0.8664286232638099 		0.07114818449460256  0.8874768420710502 		Uiso   ? 		O 		-0.552228
O 1.0  		0.8265618536793692 		0.5659960745829244  0.8873143302889459 		Uiso   ? 		O 		-0.552228
O 1.0  		0.14684774870324013 		0.35574092247301276  0.8517242500081255 		Uiso   ? 		O 		-1.096119
O 1.0  		0.11510605028053866 		0.854514229636899  0.854486950303897 		Uiso   ? 		O 		-1.096119
O 1.0  		0.6475422111625815 		0.3550049067713445  0.852049273572334 		Uiso   ? 		O 		-1.096119
O 1.0  		0.6122866409448692 		0.8552502453385673  0.8526993207007507 		Uiso   ? 		O 		-1.096119
O 1.0  		0.25160504390236166 		0.13984298331697742  0.8853641889036955 		Uiso   ? 		O 		-0.563737
O 1.0  		0.22700034866645485 		0.6452404317958783  0.8869893067247375 		Uiso   ? 		O 		-0.563737
O 1.0  		0.7535174960910569 		0.13984298331697742  0.8852016771215913 		Uiso   ? 		O 		-0.563737
O 1.0  		0.7108380225356974 		0.6307654563297351  0.8837390710826534 		Uiso   ? 		O 		-0.563737
O 1.0  		0.36328946781237237 		0.06869479882237489  0.7725810121233788 		Uiso   ? 		O 		-0.605414
O 1.0  		0.3312695827722068 		0.5664867517173701  0.7725810121233788 		Uiso   ? 		O 		-0.605414
O 1.0  		0.864457184510034 		0.06550539744847891  0.7724185003412747 		Uiso   ? 		O 		-0.605414
O 1.0  		0.8316945721474724 		0.5664867517173701  0.7722559885591704 		Uiso   ? 		O 		-0.605414
O 1.0  		0.24943652935909177 		0.13125613346418058  0.7709558943023368 		Uiso   ? 		O 		-0.606546
O 1.0  		0.21904420452540685 		0.6327281648675173  0.7712809178665453 		Uiso   ? 		O 		-0.606546
O 1.0  		0.755403807679587 		0.13469087340529934  0.7685182175707739 		Uiso   ? 		O 		-0.606546
O 1.0  		0.7184549853255628 		0.6302747791952895  0.7691682646991905 		Uiso   ? 		O 		-0.606546
O 1.0  		0.3176371456145391 		0.4104514229636899  0.8322228361556213 		Uiso   ? 		O 		-0.580174
O 1.0  		0.28565010653928913 		0.9087340529931307  0.8275099944745993 		Uiso   ? 		O 		-0.580174
O 1.0  		0.818813575845589 		0.40897939156035334  0.8314102772451002 		Uiso   ? 		O 		-0.580174
O 1.0  		0.7829446539965055 		0.9079980372914623  0.8317353008093087 		Uiso   ? 		O 		-0.580174
O 1.0  		0.0956800966506749 		0.36432777232580965  0.8279975298209119 		Uiso   ? 		O 		-0.582309
O 1.0  		0.06402822258933188 		0.8628557409224731  0.8331979068482464 		Uiso   ? 		O 		-0.582309
O 1.0  		0.5941510743389411 		0.3621197252208047  0.8305977183345792 		Uiso   ? 		O 		-0.582309
O 1.0  		0.5595899665805701 		0.8616290480863592  0.8299476712061624 		Uiso   ? 		O 		-0.582309
O 1.0  		0.13988845488627255 		0.18670264965652603  0.824747294178828 		Uiso   ? 		O 		-0.583408
O 1.0  		0.1089967352141023 		0.6854759568204123  0.8266974355640783 		Uiso   ? 		O 		-0.583408
O 1.0  		0.6417593475766638 		0.18449460255152111  0.825559853089349 		Uiso   ? 		O 		-0.583408
O 1.0  		0.6078685698461068 		0.6844946025515212  0.8252348295251406 		Uiso   ? 		O 		-0.583408
O 1.0  		0.4399456574552269 		0.28532875368007854  0.824747294178828 		Uiso   ? 		O 		-0.583027
O 1.0  		0.4141209643213284 		0.7836113837095192  0.8260473884356616 		Uiso   ? 		O 		-0.583027
O 1.0  		0.9410322633249182 		0.28410206084396467  0.8262099002177656 		Uiso   ? 		O 		-0.583027
O 1.0  		0.8991632171904238 		0.7791952894995094  0.8297851594240582 		Uiso   ? 		O 		-0.583027
O 1.0  		0.39200708843907944 		0.06280667320902847  0.8283225533851204 		Uiso   ? 		O 		-0.581885
O 1.0  		0.3619653475174404 		0.5615799803729147  0.8299476712061624 		Uiso   ? 		O 		-0.581885
O 1.0  		0.8938538486979434 		0.061825318940137396  0.8289726005135372 		Uiso   ? 		O 		-0.581885
O 1.0  		0.8575512239402061 		0.5591265947006869  0.8301101829882666 		Uiso   ? 		O 		-0.581885
O 1.0  		0.07636459229588931 		0.22497546614327776  0.7993954561705723 		Uiso   ? 		O 		-0.594475
O 1.0  		0.04106746257987298 		0.7230127576054957  0.806383462801053 		Uiso   ? 		O 		-0.594475
O 1.0  		0.5737885154441305 		0.21982335623159963  0.8010205739916144 		Uiso   ? 		O 		-0.594475
O 1.0  		0.5421453549161759 		0.7200686947988224  0.8013455975558228 		Uiso   ? 		O 		-0.594475
O 1.0  		0.21551246565989918 		0.11015701668302258  0.8283225533851204 		Uiso   ? 		O 		-0.581845
O 1.0  		0.18699974704999384 		0.6111383709519137  0.8283225533851204 		Uiso   ? 		O 		-0.581845
O 1.0  		0.7187327319393069 		0.11064769381746811  0.8284850651672245 		Uiso   ? 		O 		-0.581845
O 1.0  		0.6764454017942974 		0.6010794896957803  0.8250723177430364 		Uiso   ? 		O 		-0.581845
O 1.0  		0.21420601328686112 		0.06207065750736016  0.8291351122956414 		Uiso   ? 		O 		-0.579225
O 1.0  		0.18664181132223395 		0.5645240431795879  0.8330353950661423 		Uiso   ? 		O 		-0.579225
O 1.0  		0.7165763008157376 		0.0625613346418057  0.8292976240777455 		Uiso   ? 		O 		-0.579225
O 1.0  		0.6777874235676 		0.5544651619234544  0.8270224591282868 		Uiso   ? 		O 		-0.579225
O 1.0  		0.4398170314387871 		0.11040235525024535  0.8288100887314329 		Uiso   ? 		O 		-0.581147
O 1.0  		0.4100776095661395 		0.6089303238469088  0.8292976240777455 		Uiso   ? 		O 		-0.581147
O 1.0  		0.9406911426208455 		0.10917566241413151  0.8299476712061624 		Uiso   ? 		O 		-0.581147
O 1.0  		0.903146395702227 		0.6069676153091267  0.8288100887314329 		Uiso   ? 		O 		-0.581147
O 1.0  		0.2586199543980977 		0.35574092247301276  0.8513992264439171 		Uiso   ? 		O 		-1.097278
O 1.0  		0.2271805750243877 		0.8542688910696763  0.8505866675333961 		Uiso   ? 		O 		-1.097278
O 1.0  		0.7578510864755366 		0.3537782139352306  0.8518867617902297 		Uiso   ? 		O 		-1.097278
O 1.0  		0.7234126490434399 		0.8535328753680079  0.8522117853544381 		Uiso   ? 		O 		-1.097278
O 1.0  		0.39289450712701746 		0.2855740922473013  0.8242597588325153 		Uiso   ? 		O 		-0.580822
O 1.0  		0.3681738469295871 		0.786064769381747  0.8244222706146196 		Uiso   ? 		O 		-0.580822
O 1.0  		0.8939154210668774 		0.2833660451422964  0.8252348295251406 		Uiso   ? 		O 		-0.580822
O 1.0  		0.8516870774869487 		0.7794406280667322  0.8273474826924951 		Uiso   ? 		O 		-0.580822
O 1.0  		0.09354048055079284 		0.18792934249263987  0.8232846881398901 		Uiso   ? 		O 		-0.581188
O 1.0  		0.061356365686049075 		0.6832679097154074  0.8291351122956414 		Uiso   ? 		O 		-0.581188
O 1.0  		0.5954924840691543 		0.1837585868498528  0.8268599473461825 		Uiso   ? 		O 		-0.581188
O 1.0  		0.5612665413246903 		0.68351324828263  0.8245847823967237 		Uiso   ? 		O 		-0.581188
O 1.0  		0.14039244369724896 		0.41167811579980373  0.8314102772451002 		Uiso   ? 		O 		-0.576139
O 1.0  		0.1115928249364912 		0.9099607458292445  0.8331979068482464 		Uiso   ? 		O 		-0.576139
O 1.0  		0.6425656554366316 		0.4092247301275761  0.8301101829882666 		Uiso   ? 		O 		-0.576139
O 1.0  		0.6074568879767208 		0.9084887144259078  0.8318978125914128 		Uiso   ? 		O 		-0.576139
O 1.0  		0.3172792098867792 		0.36383709519136415  0.8284850651672245 		Uiso   ? 		O 		-0.579418
O 1.0  		0.28476864354151665 		0.8606476938174682  0.825559853089349 		Uiso   ? 		O 		-0.579418
O 1.0  		0.8189047619246219 		0.36113837095191365  0.8317353008093087 		Uiso   ? 		O 		-0.579418
O 1.0  		0.7852593248466135 		0.8616290480863592  0.8289726005135372 		Uiso   ? 		O 		-0.579418
O 1.0  		0.41603301091417755 		0.18523061825318943  0.8281600416030162 		Uiso   ? 		O 		-0.919811
O 1.0  		0.38756855716732674 		0.6837585868498528  0.8275099944745993 		Uiso   ? 		O 		-0.919811
O 1.0  		0.919956453186315 		0.18670264965652603  0.8268599473461825 		Uiso   ? 		O 		-0.919811
O 1.0  		0.8780874070518205 		0.6817958783120707  0.8292976240777455 		Uiso   ? 		O 		-0.919811
O 1.0  		0.31461606651688456 		0.1859666339548577  0.8275099944745993 		Uiso   ? 		O 		-0.917579
O 1.0  		0.2879346892677043 		0.6889106967615309  0.8291351122956414 		Uiso   ? 		O 		-0.917579
O 1.0  		0.8164299808108328 		0.18449460255152111  0.8279975298209119 		Uiso   ? 		O 		-0.917579
O 1.0  		0.7741030993361571 		0.6790971540726203  0.8284850651672245 		Uiso   ? 		O 		-0.917579
O 1.0  		0.31541849567107233 		0.08684985279685967  0.8322228361556213 		Uiso   ? 		O 		-0.922196
O 1.0  		0.2846735787567036 		0.5846418056918549  0.8312477654629961 		Uiso   ? 		O 		-0.922196
O 1.0  		0.8155237389305698 		0.0836604514229637  0.8305977183345792 		Uiso   ? 		O 		-0.922196
O 1.0  		0.7779045865487315 		0.5787536800785084  0.8286475769493288 		Uiso   ? 		O 		-0.922196
O 1.0  		0.21859116960495995 		0.3878802747791953  0.8309227418987877 		Uiso   ? 		O 		-0.907616
O 1.0  		0.18730730652243982 		0.8871442590775271  0.8299476712061624 		Uiso   ? 		O 		-0.907616
O 1.0  		0.7183042694541075 		0.3851815505397449  0.8292976240777455 		Uiso   ? 		O 		-0.907616
O 1.0  		0.6837190292642092 		0.8859175662414133  0.8317353008093087 		Uiso   ? 		O 		-0.907616
O 1.0  		0.21825671985776401 		0.2860647693817468  0.8275099944745993 		Uiso   ? 		O 		-0.920124
O 1.0  		0.18510866944960308 		0.7828753680078508  0.8284850651672245 		Uiso   ? 		O 		-0.920124
O 1.0  		0.7187628200609998 		0.28410206084396467  0.8279975298209119 		Uiso   ? 		O 		-0.920124
O 1.0  		0.6848063504006117 		0.7831207065750737  0.8283225533851204 		Uiso   ? 		O 		-0.920124
O 1.0  		0.29081199871377106 		0.11923454367026497  0.7382910260993922 		Uiso   ? 		O 		-0.552278
O 1.0  		0.25440212252789834 		0.6133464180569186  0.7381285143172879 		Uiso   ? 		O 		-0.552278
O 1.0  		0.7913422313485342 		0.11604514229636899  0.7368284200604543 		Uiso   ? 		O 		-0.552278
O 1.0  		0.7572630913618716 		0.6148184494602551  0.735690837585725 		Uiso   ? 		O 		-0.552278
O 1.0  		0.2804841365104242 		0.30937193326790974  0.8011830857737184 		Uiso   ? 		O 		-0.591699
O 1.0  		0.2489133732770516 		0.805937193326791  0.8005330386453018 		Uiso   ? 		O 		-0.591699
O 1.0  		0.7839081839440765 		0.3081452404317959  0.8026456918126563 		Uiso   ? 		O 		-0.591699
O 1.0  		0.7455134582749267 		0.805937193326791  0.8026456918126563 		Uiso   ? 		O 		-0.591699
O 1.0  		0.11638194012028985 		0.2863101079489696  0.8279975298209119 		Uiso   ? 		O 		-0.912977
O 1.0  		0.08429636315029304 		0.7831207065750737  0.8330353950661423 		Uiso   ? 		O 		-0.912977
O 1.0  		0.6146886879839779 		0.28164867517173703  0.8288100887314329 		Uiso   ? 		O 		-0.912977
O 1.0  		0.5825394272527875 		0.783856722276742  0.8288100887314329 		Uiso   ? 		O 		-0.912977
O 1.0  		0.16809585574884658 		0.40333660451422965  0.774206129944421 		Uiso   ? 		O 		-0.585860
O 1.0  		0.13516901356170685 		0.9018645731108932  0.7743686417265251 		Uiso   ? 		O 		-0.585860
O 1.0  		0.6699339024743222 		0.40063788027477926  0.7724185003412747 		Uiso   ? 		O 		-0.585860
O 1.0  		0.6366082115120819 		0.9043179587831208  0.7738811063802125 		Uiso   ? 		O 		-0.585860
O 1.0  		0.19449478918817006 		0.43105986261040236  0.8062209510189489 		Uiso   ? 		O 		-0.590875
O 1.0  		0.1656864568940239 		0.9276251226692838  0.8058959274547404 		Uiso   ? 		O 		-0.590875
O 1.0  		0.697027298372987 		0.42762512266928365  0.8041082978515942 		Uiso   ? 		O 		-0.590875
O 1.0  		0.6638812561334639 		0.9308145240431797  0.8065459745831572 		Uiso   ? 		O 		-0.590875
O 1.0  		0.14893855671272588 		0.24730127576054958  0.8044333214158026 		Uiso   ? 		O 		-1.127089
O 1.0  		0.11336324037924544 		0.7443572129538764  0.8078460688399909 		Uiso   ? 		O 		-1.127089
O 1.0  		0.648349337512882 		0.24484789008832192  0.8058959274547404 		Uiso   ? 		O 		-1.127089
O 1.0  		0.613453064740604 		0.7441118743866536  0.8054083921084279 		Uiso   ? 		O 		-1.127089
O 1.0  		0.4281532751916727 		0.13297350343473996  0.7703058471739201 		Uiso   ? 		O 		-0.588451
O 1.0  		0.3963217524076126 		0.6319921491658489  0.7699808236097118 		Uiso   ? 		O 		-0.588451
O 1.0  		0.9301139922434225 		0.1305201177625123  0.7706308707381284 		Uiso   ? 		O 		-0.588451
O 1.0  		0.8981618073017259 		0.6356722276741905  0.7732310592517957 		Uiso   ? 		O 		-0.588451
O 1.0  		0.4573890450334423 		0.1633954857703631  0.8013455975558228 		Uiso   ? 		O 		-0.592920
O 1.0  		0.4272487662170564 		0.6606967615309127  0.8011830857737184 		Uiso   ? 		O 		-0.592920
O 1.0  		0.9601427624392804 		0.16167811579980376  0.8016706211200311 		Uiso   ? 		O 		-0.592920
O 1.0  		0.9236537835940752 		0.6641315014720315  0.8057334156726362 		Uiso   ? 		O 		-0.592920
O 1.0  		0.28333366837566043 		0.4043179587831207  0.7735560828160041 		Uiso   ? 		O 		-0.605396
O 1.0  		0.24756998978607453 		0.9001472031403338  0.7716059414307537 		Uiso   ? 		O 		-0.605396
O 1.0  		0.7828342735371752 		0.4016192345436703  0.7717684532128578 		Uiso   ? 		O 		-0.605396
O 1.0  		0.7479380007648972 		0.9008832188420021  0.7735560828160041 		Uiso   ? 		O 		-0.605396
O 1.0  		0.28124960013879907 		0.4303238469087341  0.8062209510189489 		Uiso   ? 		O 		-0.596091
O 1.0  		0.2494180773547391 		0.929342492639843  0.8032957389410731 		Uiso   ? 		O 		-0.596091
O 1.0  		0.7823603384400176 		0.4278704612365064  0.80394578606949 		Uiso   ? 		O 		-0.596091
O 1.0  		0.7485024066743765 		0.9283611383709519  0.8050833685442194 		Uiso   ? 		O 		-0.596091
O 1.0  		0.24964504211732289 		0.040726202158979395  0.8054083921084279 		Uiso   ? 		O 		-0.591818
O 1.0  		0.22131197223013474 		0.541216879293425  0.8073585334936783 		Uiso   ? 		O 		-0.591818
O 1.0  		0.7532333193755534 		0.041952894995093234  0.8042708096336983 		Uiso   ? 		O 		-0.591818
O 1.0  		0.7168891351195119 		0.537046123650638  0.8026456918126563 		Uiso   ? 		O 		-0.591818
O 1.0  		0.25093675645105923 		0.06795878312070659  0.771930964994962 		Uiso   ? 		O 		-0.587690
O 1.0  		0.21715993551338827 		0.5664867517173701  0.7753437124191503 		Uiso   ? 		O 		-0.587690
O 1.0  		0.7531273952572186 		0.06894013738959766  0.7722559885591704 		Uiso   ? 		O 		-0.587690
O 1.0  		0.717666035716624 		0.5645240431795879  0.7706308707381284 		Uiso   ? 		O 		-0.587690
O 1.0  		0.37550554654926555 		0.11310107948969579  0.736503396496246 		Uiso   ? 		O 		-0.552220
O 1.0  		0.3405610089139329 		0.6148184494602551  0.7374784671888712 		Uiso   ? 		O 		-0.552220
O 1.0  		0.8776874718220365 		0.11236506378802749  0.7371534436246626 		Uiso   ? 		O 		-0.552220
O 1.0  		0.8501078509592704 		0.6177625122669284  0.7379660025351839 		Uiso   ? 		O 		-0.552220
O 1.0  		0.42906353340921133 		0.24656526005888124  0.7677056586602529 		Uiso   ? 		O 		-0.605843
O 1.0  		0.39998572803098936 		0.7438665358194309  0.7694932882633991 		Uiso   ? 		O 		-0.605843
O 1.0  		0.9318829427448807 		0.24582924435721298  0.7683557057886696 		Uiso   ? 		O 		-0.605843
O 1.0  		0.8937992496581104 		0.7450932286555447  0.7722559885591704 		Uiso   ? 		O 		-0.605843
O 1.0  		0.45699016185046787 		0.24631992149165852  0.7997204797347808 		Uiso   ? 		O 		-0.596091
O 1.0  		0.43028264400112254 		0.7441118743866536  0.801508109337927 		Uiso   ? 		O 		-0.596091
O 1.0  		0.9612159231715967 		0.24754661432777234  0.8005330386453018 		Uiso   ? 		O 		-0.596091
O 1.0  		0.9204750424050976 		0.7436211972522081  0.8044333214158026 		Uiso   ? 		O 		-0.596091
O 1.0  		0.3634837857586435 		0.24460255152109914  0.7683557057886696 		Uiso   ? 		O 		-0.587913
O 1.0  		0.3362219028430077 		0.7468105986261041  0.7691682646991905 		Uiso   ? 		O 		-0.587913
O 1.0  		0.8656985569963301 		0.24435721295387638  0.7686807293528781 		Uiso   ? 		O 		-0.587913
O 1.0  		0.8280968316812686 		0.7428851815505398  0.7694932882633991 		Uiso   ? 		O 		-0.587913
O 1.0  		0.25044675600479954 		0.04317958783120707  0.8549744856502096 		Uiso   ? 		O 		-0.565199
O 1.0  		0.22452553314479193 		0.546368989205103  0.8580622095101895 		Uiso   ? 		O 		-0.565199
O 1.0  		0.7519342188182291 		0.04317958783120707  0.8564370916891474 		Uiso   ? 		O 		-0.565199
O 1.0  		0.71299853881229 		0.5360647693817469  0.8531868560470633 		Uiso   ? 		O 		-0.565199
O 1.0  		0.2522948435734641 		0.07237487733071639  0.8861767478142165 		Uiso   ? 		O 		-0.545673
O 1.0  		0.22462539834933942 		0.5780176643768401  0.8887769363278838 		Uiso   ? 		O 		-0.545673
O 1.0  		0.7532433602187423 		0.073846908734053  0.8881268891994669 		Uiso   ? 		O 		-0.545673
O 1.0  		0.7103996568388045 		0.5623159960745829  0.8848766535573829 		Uiso   ? 		O 		-0.545673
O 1.0  		0.43305137470925337 		0.14106967615309127  0.8853641889036955 		Uiso   ? 		O 		-0.569953
O 1.0  		0.4034500420610189 		0.6368989205103043  0.8843891182110702 		Uiso   ? 		O 		-0.569953
O 1.0  		0.931489506432604 		0.13837095191364082  0.8852016771215913 		Uiso   ? 		O 		-0.569953
O 1.0  		0.8917366936410493 		0.6317468105986263  0.8860142360321123 		Uiso   ? 		O 		-0.569953
O 1.0  		0.3631834748782899 		0.2512266928361139  0.882601488607924 		Uiso   ? 		O 		-0.558843
O 1.0  		0.3435714007174353 		0.7534347399411189  0.8852016771215913 		Uiso   ? 		O 		-0.558843
O 1.0  		0.8676545768519671 		0.2529440628066732  0.883414047518445 		Uiso   ? 		O 		-0.558843
O 1.0  		0.8198578037266435 		0.7404317958783121  0.8837390710826534 		Uiso   ? 		O 		-0.558843
O 1.0  		0.10056284608586448 		0.21982335623159963  0.8816264179152987 		Uiso   ? 		O 		-0.554962
O 1.0  		0.07213123830392937 		0.7188420019627086  0.8881268891994669 		Uiso   ? 		O 		-0.554962
O 1.0  		0.6029157065479642 		0.21687929342492643  0.8840640946468619 		Uiso   ? 		O 		-0.554962
O 1.0  		0.5684859826492559 		0.718351324828263  0.8843891182110702 		Uiso   ? 		O 		-0.554962
O 1.0  		0.16734240672442455 		0.3984298331697744  0.8874768420710502 		Uiso   ? 		O 		-0.544691
O 1.0  		0.13806082019195814 		0.8974484789008833  0.8882894009815712 		Uiso   ? 		O 		-0.544691
O 1.0  		0.6671211985034032 		0.39671246319921494  0.8871518185068417 		Uiso   ? 		O 		-0.544691
O 1.0  		0.6321351013697668 		0.8962217860647694  0.8887769363278838 		Uiso   ? 		O 		-0.544691
O 1.0  		0.2795262254729205 		0.3299803729146222  0.8865017713784249 		Uiso   ? 		O 		-0.542821
O 1.0  		0.2531800132376472 		0.8331697742885182  0.884226606428966 		Uiso   ? 		O 		-0.542821
O 1.0  		0.78054043404803 		0.33243375858684987  0.8853641889036955 		Uiso   ? 		O 		-0.542821
O 1.0  		0.7456924261388065 		0.829244357212954  0.8861767478142165 		Uiso   ? 		O 		-0.542821
O 1.0  		0.10566472675768969 		0.22620215897939158  0.7672181233139402 		Uiso   ? 		O 		-0.589493
O 1.0  		0.06833247452670388 		0.7239941118743868  0.7733935710338999 		Uiso   ? 		O 		-0.589493
O 1.0  		0.603073231007792 		0.22399411187438667  0.7691682646991905 		Uiso   ? 		O 		-0.589493
O 1.0  		0.5705713781959177 		0.72252208047105  0.7693307764812949 		Uiso   ? 		O 		-0.589493
O 1.0  		0.28444175205727795 		0.34151128557409227  0.7701433353918158 		Uiso   ? 		O 		-0.588334
O 1.0  		0.24741852424003405 		0.834396467124632  0.7699808236097118 		Uiso   ? 		O 		-0.588334
O 1.0  		0.7825031592684175 		0.3363591756624142  0.7714434296486494 		Uiso   ? 		O 		-0.588334
O 1.0  		0.746299072405427 		0.8351324828263004  0.771118406084441 		Uiso   ? 		O 		-0.588334
O 1.0  		0.3767033857764938 		0.20559371933267911  0.7369909318425586 		Uiso   ? 		O 		-0.552216
O 1.0  		0.3468171611460447 		0.7051030421982336  0.736503396496246 		Uiso   ? 		O 		-0.552216
O 1.0  		0.8767603641729368 		0.2048577036310108  0.737315955406767 		Uiso   ? 		O 		-0.552216
O 1.0  		0.8496868435134065 		0.7082924435721296  0.7371534436246626 		Uiso   ? 		O 		-0.552216
O 1.0  		0.2745879969904579 		0.11653581943081454  0.8515617382260213 		Uiso   ? 		O 		-1.103553
O 1.0  		0.24708077342227372 		0.618253189401374  0.8523742971365423 		Uiso   ? 		O 		-1.103553
O 1.0  		0.7757074488250649 		0.11579980372914622  0.8505866675333961 		Uiso   ? 		O 		-1.103553
O 1.0  		0.736167130721143 		0.6091756624141316  0.8500991321870834 		Uiso   ? 		O 		-1.103553
O 1.0  		0.38779068710230225 		0.11727183513248284  0.8507491793155003 		Uiso   ? 		O 		-1.116388
O 1.0  		0.3570129242230179 		0.6145731108930325  0.8518867617902297 		Uiso   ? 		O 		-1.116388
O 1.0  		0.8875366329163654 		0.11506378802747792  0.8507491793155003 		Uiso   ? 		O 		-1.116388
O 1.0  		0.848283214963296 		0.6111383709519137  0.8523742971365423 		Uiso   ? 		O 		-1.116388
O 1.0  		0.3875640664184572 		0.22816486751717374  0.8481489908018331 		Uiso   ? 		O 		-1.119538
O 1.0  		0.3597699426994205 		0.7271835132482827  0.8500991321870834 		Uiso   ? 		O 		-1.119538
O 1.0  		0.8887733426144228 		0.22718351324828268  0.8487990379302499 		Uiso   ? 		O 		-1.119538
O 1.0  		0.8445252954176633 		0.7200686947988224  0.8496115968407708 		Uiso   ? 		O 		-1.119538
O 1.0  		0.2749714268674195 		0.11432777232580964  0.8070335099294699 		Uiso   ? 		O 		-1.125268
O 1.0  		0.2463688838961556 		0.6155544651619235  0.8084961159684076 		Uiso   ? 		O 		-1.125268
O 1.0  		0.778739352848367 		0.11506378802747792  0.8065459745831572 		Uiso   ? 		O 		-1.125268
O 1.0  		0.7393873970005507 		0.6096663395485771  0.8065459745831572 		Uiso   ? 		O 		-1.125268
O 1.0  		0.3346260677388854 		0.24681059862610405  0.7993954561705723 		Uiso   ? 		O 		-0.593067
O 1.0  		0.31019230769230743 		0.75  0.8011830857737184 		Uiso   ? 		O 		-0.593067
O 1.0  		0.8405276541295496 		0.24926398429833171  0.8005330386453018 		Uiso   ? 		O 		-0.593067
O 1.0  		0.7965732124483932 		0.7401864573110893  0.8000455032989892 		Uiso   ? 		O 		-0.593067
O 1.0  		0.38480704794205456 		0.11555446516192346  0.8068709981473656 		Uiso   ? 		O 		-1.127080
O 1.0  		0.3554356370482296 		0.6148184494602551  0.8081710924041993 		Uiso   ? 		O 		-1.127080
O 1.0  		0.8877732600355255 		0.1138370951913641  0.8067084863652615 		Uiso   ? 		O 		-1.127080
O 1.0  		0.8502043806853796 		0.6128557409224731  0.8075210452757825 		Uiso   ? 		O 		-1.127080
O 1.0  		0.3857568574892595 		0.22497546614327776  0.8049208567621152 		Uiso   ? 		O 		-1.127603
O 1.0  		0.3567118980759532 		0.7227674190382729  0.8060584392368446 		Uiso   ? 		O 		-1.127603
O 1.0  		0.8880286071233889 		0.22399411187438667  0.8052458803263236 		Uiso   ? 		O 		-1.127603
O 1.0  		0.8475900454058813 		0.7198233562315998  0.8068709981473656 		Uiso   ? 		O 		-1.127603
O 1.0  		0.2823537707067627 		0.12144259077526988  0.9183540806708486 		Uiso   ? 		O 		-0.790925
O 1.0  		0.2561302287977637 		0.6248773307163887  0.9203042220560991 		Uiso   ? 		O 		-0.790925
O 1.0  		0.7848641556286902 		0.12561334641805694  0.9201417102739948 		Uiso   ? 		O 		-0.790925
O 1.0  		0.7390937914849477 		0.6116290480863592  0.9177040335424318 		Uiso   ? 		O 		-0.790925
O 1.0  		0.45989942995536975 		0.16756624141315019  0.8533493678291676 		Uiso   ? 		O 		-0.567534
O 1.0  		0.4313035923488564 		0.6641315014720315  0.8522117853544381 		Uiso   ? 		O 		-0.567534
O 1.0  		0.9612883548740525 		0.16609421000981356  0.8531868560470633 		Uiso   ? 		O 		-0.567534
O 1.0  		0.9212419365668947 		0.6614327772325811  0.8548119738681054 		Uiso   ? 		O 		-0.567534
O 1.0  		0.38539827531053616 		0.12438665358194309  0.9196541749276822 		Uiso   ? 		O 		-0.743043
O 1.0  		0.35789775710710253 		0.6214425907752699  0.9204667338382032 		Uiso   ? 		O 		-0.743043
O 1.0  		0.8862482540610674 		0.12438665358194309  0.9193291513634738 		Uiso   ? 		O 		-0.743043
O 1.0  		0.8460047599644157 		0.6167811579980373  0.9183540806708486 		Uiso   ? 		O 		-0.743043
O 1.0  		0.3848653192404242 		0.22276741903827285  0.9165664510677023 		Uiso   ? 		O 		-0.751011
O 1.0  		0.3618204841125289 		0.7244847890088322  0.9168914746319108 		Uiso   ? 		O 		-0.751011
O 1.0  		0.8869332877203093 		0.22350343473994114  0.9159164039392855 		Uiso   ? 		O 		-0.751011
O 1.0  		0.838459479202421 		0.7151619234543671  0.9178665453245359 		Uiso   ? 		O 		-0.751011
O 1.0  		0.14825951315152344 		0.24509322865554467  0.9165664510677023 		Uiso   ? 		O 		-0.836172
O 1.0  		0.1235649935542581 		0.7507360157016684  0.9198166867097864 		Uiso   ? 		O 		-0.836172
O 1.0  		0.6523626041463781 		0.2460745829244357  0.9177040335424318 		Uiso   ? 		O 		-0.836172
O 1.0  		0.6182593317281884 		0.7460745829244357  0.9167289628498065 		Uiso   ? 		O 		-0.836172
O 1.0  		0.14622367536984282 		0.3464180569185476  0.9196541749276822 		Uiso   ? 		O 		-0.827439
O 1.0  		0.12228931016175021 		0.8523061825318942  0.9220918516592453 		Uiso   ? 		O 		-0.827439
O 1.0  		0.6469268513625724 		0.34739941118743867  0.9201417102739948 		Uiso   ? 		O 		-0.827439
O 1.0  		0.6114259404923118 		0.8471540726202159  0.9207917574024117 		Uiso   ? 		O 		-0.827439
O 1.0  		0.24943911516294515 		0.3471540726202159  0.9201417102739948 		Uiso   ? 		O 		-0.717934
O 1.0  		0.22449925491313139 		0.8523061825318942  0.9183540806708486 		Uiso   ? 		O 		-0.717934
O 1.0  		0.7497085882470209 		0.3464180569185476  0.9183540806708486 		Uiso   ? 		O 		-0.717934
O 1.0  		0.7162186674602022 		0.8476447497546615  0.9196541749276822 		Uiso   ? 		O 		-0.717934
O 1.0  		0.15508279472846342 		0.2676643768400393  0.7361783729320376 		Uiso   ? 		O 		-0.552121
O 1.0  		0.11635960941015705 		0.7605495583905791  0.7382910260993922 		Uiso   ? 		O 		-0.552121
O 1.0  		0.657648149878196 		0.26472031403336604  0.737315955406767 		Uiso   ? 		O 		-0.552121
O 1.0  		0.6242480534527359 		0.7657016683022572  0.7371534436246626 		Uiso   ? 		O 		-0.552121
O 1.0  		0.1484337494114167 		0.3572129538763494  0.8078460688399909 		Uiso   ? 		O 		-1.121532
O 1.0  		0.11486070962799017 		0.8540235525024534  0.8101212337894498 		Uiso   ? 		O 		-1.121532
O 1.0  		0.6474852327661385 		0.35574092247301276  0.8086586277505119 		Uiso   ? 		O 		-1.121532
O 1.0  		0.6142647850633958 		0.8562315996074584  0.8088211395326161 		Uiso   ? 		O 		-1.121532
O 1.0  		0.1578492075970916 		0.35819430814524045  0.7368284200604543 		Uiso   ? 		O 		-0.552248
O 1.0  		0.11566912888021741 		0.8518155053974485  0.7402411674846425 		Uiso   ? 		O 		-0.552248
O 1.0  		0.6577003966706523 		0.35279685966633956  0.7374784671888712 		Uiso   ? 		O 		-0.552248
O 1.0  		0.6258534549884532 		0.8547595682041218  0.7389410732278089 		Uiso   ? 		O 		-0.552248
O 1.0  		0.2482251417708668 		0.3591756624141315  0.7376409789709752 		Uiso   ? 		O 		-0.552389
O 1.0  		0.20733545007792836 		0.8498527968596664  0.7374784671888712 		Uiso   ? 		O 		-0.552389
O 1.0  		0.7464661977047236 		0.35353287536800787  0.7379660025351839 		Uiso   ? 		O 		-0.552389
O 1.0  		0.710417627132923 		0.8530421982335623  0.7389410732278089 		Uiso   ? 		O 		-0.552389
O 1.0  		0.3270239118040694 		0.11261040235525026  0.8868267949426333 		Uiso   ? 		O 		-0.958081
O 1.0  		0.2999899424742054 		0.6118743866535821  0.8907270777131341 		Uiso   ? 		O 		-0.958081
O 1.0  		0.8280206933124021 		0.11162904808635919  0.8895894952384048 		Uiso   ? 		O 		-0.958081
O 1.0  		0.786526363521481 		0.6027968596663396  0.8874768420710502 		Uiso   ? 		O 		-0.958081
O 1.0  		0.3944705013998791 		0.17737978410206084  0.8861767478142165 		Uiso   ? 		O 		-0.884462
O 1.0  		0.3680411701679978 		0.676153091265947  0.8873143302889459 		Uiso   ? 		O 		-0.884462
O 1.0  		0.8953774585468531 		0.17664376840039256  0.8855267006857996 		Uiso   ? 		O 		-0.884462
O 1.0  		0.8534098745176117 		0.6702649656526007  0.8879643774173628 		Uiso   ? 		O 		-0.884462
O 1.0  		0.33628647391028166 		0.25098135426889107  0.8512367146618129 		Uiso   ? 		O 		-0.568062
O 1.0  		0.3152941883641327 		0.7563788027477921  0.852861832482855 		Uiso   ? 		O 		-0.568062
O 1.0  		0.8386808938706856 		0.2502453385672228  0.8509116910976045 		Uiso   ? 		O 		-0.568062
O 1.0  		0.7962554745012629 		0.7433758586849853  0.8504241557512918 		Uiso   ? 		O 		-0.568062
O 1.0  		0.3275916531919871 		0.17664376840039256  0.8868267949426333 		Uiso   ? 		O 		-0.949246
O 1.0  		0.3027985956999748 		0.6808145240431797  0.8887769363278838 		Uiso   ? 		O 		-0.949246
O 1.0  		0.8288753348511723 		0.17836113837095194  0.8861767478142165 		Uiso   ? 		O 		-0.949246
O 1.0  		0.784936312068155 		0.6663395485770364  0.8871518185068417 		Uiso   ? 		O 		-0.949246
O 1.0  		0.3260164085937105 		0.10549558390579  0.771118406084441 		Uiso   ? 		O 		-0.974595
O 1.0  		0.2941520398447348 		0.6040235525024535  0.7720934767770663 		Uiso   ? 		O 		-0.974595
O 1.0  		0.8281654879015659 		0.10426889106967616  0.7714434296486494 		Uiso   ? 		O 		-0.974595
O 1.0  		0.7952802052127301 		0.6050049067713446  0.7698183118276075 		Uiso   ? 		O 		-0.974595
O 1.0  		0.39207407327083743 		0.1717369970559372  0.7691682646991905 		Uiso   ? 		O 		-0.973483
O 1.0  		0.36060184793221167 		0.6697742885181551  0.7696558000455032 		Uiso   ? 		O 		-0.973483
O 1.0  		0.8931191196422247 		0.16830225711481847  0.7703058471739201 		Uiso   ? 		O 		-0.973483
O 1.0  		0.8580190657157023 		0.6692836113837096  0.7714434296486494 		Uiso   ? 		O 		-0.973483
O 1.0  		0.2582452380545245 		0.3596663395485771  0.5879676276530048 		Uiso   ? 		O 		-1.137994
O 1.0  		0.226503539631823 		0.8584396467124633  0.5878051158709006 		Uiso   ? 		O 		-1.137994
O 1.0  		0.7576473053212922 		0.35549558390579006  0.5865050216140669 		Uiso   ? 		O 		-1.137994
O 1.0  		0.7228167244788455 		0.8557409224730128  0.5878051158709006 		Uiso   ? 		O 		-1.137994
O 1.0  		0.33116250338344083 		0.17443572129538765  0.33217408262099 		Uiso   ? 		O 		-0.981997
O 1.0  		0.292292515307333 		0.6683022571148186  0.33396171222413623 		Uiso   ? 		O 		-0.981997
O 1.0  		0.8250879736348101 		0.16781157998037294  0.331361523710469 		Uiso   ? 		O 		-0.981997
O 1.0  		0.795129351709779 		0.6710009813542689  0.33282412974940684 		Uiso   ? 		O 		-0.981997
O 1.0  		0.3278369938445355 		0.1771344455348381  0.5528650827184971 		Uiso   ? 		O 		-0.981935
O 1.0  		0.29261226142310115 		0.6714916584887145  0.5514024766795592 		Uiso   ? 		O 		-0.981935
O 1.0  		0.8252193574944726 		0.16977428851815507  0.5501023824227256 		Uiso   ? 		O 		-0.981935
O 1.0  		0.7962092522147199 		0.6744357212953878  0.5528650827184971 		Uiso   ? 		O 		-0.981935
O 1.0  		0.13842842557493462 		0.29980372914622183  0.3324991061851984 		Uiso   ? 		O 		-0.981998
O 1.0  		0.1089671903197511 		0.7993130520117764  0.3315240354925732 		Uiso   ? 		O 		-0.981998
O 1.0  		0.6426783193275907 		0.29980372914622183  0.33119901192836476 		Uiso   ? 		O 		-0.981998
O 1.0  		0.6050678804791408 		0.7966143277723259  0.33103650014626057 		Uiso   ? 		O 		-0.981998
O 1.0  		0.14429716600068304 		0.30176643768400396  0.551239964897455 		Uiso   ? 		O 		-0.981936
O 1.0  		0.10818290349905113 		0.8002944062806674  0.5527025709363929 		Uiso   ? 		O 		-0.981936
O 1.0  		0.6408711103983931 		0.2966143277723259  0.5514024766795592 		Uiso   ? 		O 		-0.981936
O 1.0  		0.6036045500972385 		0.795387634936212  0.5541651769753307 		Uiso   ? 		O 		-0.981936
O 1.0  		0.2052945095042888 		0.36383709519136415  0.33282412974940684 		Uiso   ? 		O 		-0.981999
O 1.0  		0.17364263544294595 		0.8623650637880276  0.3307114765820522 		Uiso   ? 		O 		-0.981999
O 1.0  		0.7074523023455325 		0.36432777232580965  0.331361523710469 		Uiso   ? 		O 		-0.981999
O 1.0  		0.6712153695176264 		0.8626104023552503  0.33266161796730265 		Uiso   ? 		O 		-0.981999
O 1.0  		0.20581803677430136 		0.3653091265947008  0.5514024766795592 		Uiso   ? 		O 		-0.981935
O 1.0  		0.17408505188498818 		0.8657998037291463  0.552052523807976 		Uiso   ? 		O 		-0.981935
O 1.0  		0.705277082437512 		0.3604023552502454  0.551239964897455 		Uiso   ? 		O 		-0.981935
O 1.0  		0.6700215122197997 		0.8606476938174682  0.5525400591542886 		Uiso   ? 		O 		-0.981935
O 1.0  		0.24752880877438316 		0.04244357212953877  0.36321383300289267 		Uiso   ? 		O 		-0.610674
O 1.0  		0.21702051897917454 		0.5390088321884201  0.3663015568628725 		Uiso   ? 		O 		-0.610674
O 1.0  		0.7487360768017108 		0.03508341511285574  0.3645139272597263 		Uiso   ? 		O 		-0.610674
O 1.0  		0.7239276004115596 		0.542198233562316  0.3637013683492053 		Uiso   ? 		O 		-0.610674
O 1.0  		0.07228563373256192 		0.22276741903827285  0.41668020931517535 		Uiso   ? 		O 		-0.610638
O 1.0  		0.040217483829341705 		0.7230127576054957  0.41798030357200894 		Uiso   ? 		O 		-0.610638
O 1.0  		0.5724652824552791 		0.22227674190382732  0.4155426268404459 		Uiso   ? 		O 		-0.610638
O 1.0  		0.5363335928868704 		0.717369970559372  0.4155426268404459 		Uiso   ? 		O 		-0.610638
O 1.0  		0.2027070644995405 		0.2966143277723259  0.33201157083888583 		Uiso   ? 		O 		-0.981999
O 1.0  		0.17385918087572813 		0.7973503434739941  0.3307114765820522 		Uiso   ? 		O 		-0.981999
O 1.0  		0.7068517149926992 		0.29980372914622183  0.33201157083888583 		Uiso   ? 		O 		-0.981999
O 1.0  		0.6711295959014172 		0.7978410206084396  0.331361523710469 		Uiso   ? 		O 		-0.981999
O 1.0  		0.205903198347421 		0.2983316977428852  0.5522150355900802 		Uiso   ? 		O 		-0.981936
O 1.0  		0.17393358633894776 		0.8000490677134446  0.5528650827184971 		Uiso   ? 		O 		-0.981936
O 1.0  		0.7071037610099983 		0.29563297350343476  0.5507524295511423 		Uiso   ? 		O 		-0.981936
O 1.0  		0.6696991114844305 		0.7971050049067715  0.5517275002437676 		Uiso   ? 		O 		-0.981936
O 1.0  		0.14039785616007286 		0.2990677134445535  0.44495725940130654 		Uiso   ? 		O 		-0.981928
O 1.0  		0.10823116836210572 		0.7978410206084396  0.4483700068254948 		Uiso   ? 		O 		-0.981928
O 1.0  		0.6424329786750422 		0.29931305201177627  0.44576981831182755 		Uiso   ? 		O 		-0.981928
O 1.0  		0.6058850132647564 		0.7961236506378804  0.4470699125686612 		Uiso   ? 		O 		-0.981928
O 1.0  		0.14053795355312382 		0.30274779195289503  0.6658107712809179 		Uiso   ? 		O 		-0.981941
O 1.0  		0.1076768032958153 		0.8022571148184495  0.6687359833587935 		Uiso   ? 		O 		-0.981941
O 1.0  		0.64136179170349 		0.29759568204121695  0.6672733773198556 		Uiso   ? 		O 		-0.981941
O 1.0  		0.6070875840959714 		0.7998037291462218  0.6669483537556472 		Uiso   ? 		O 		-0.981941
O 1.0  		0.07499108627534551 		0.22350343473994114  0.6342834855527025 		Uiso   ? 		O 		-0.610713
O 1.0  		0.04159098984988552 		0.7244847890088322  0.6355835798095362 		Uiso   ? 		O 		-0.610713
O 1.0  		0.5752431322926445 		0.2193326790971541  0.6352585562453277 		Uiso   ? 		O 		-0.610713
O 1.0  		0.5390477589630425 		0.7198233562315998  0.637046185848474 		Uiso   ? 		O 		-0.610713
O 1.0  		0.2034061897471208 		0.36261040235525027  0.44641986544024437 		Uiso   ? 		O 		-0.981928
O 1.0  		0.1763568015191178 		0.8648184494602552  0.4473949361328696 		Uiso   ? 		O 		-0.981928
O 1.0  		0.7072726536228153 		0.3648184494602552  0.4465823772223486 		Uiso   ? 		O 		-0.981928
O 1.0  		0.6708473585388037 		0.861874386653582  0.4470699125686612 		Uiso   ? 		O 		-0.981928
O 1.0  		0.2060151125637952 		0.3682531894013739  0.6658107712809179 		Uiso   ? 		O 		-0.981939
O 1.0  		0.17497659013382338 		0.8680078508341512  0.6693860304872102 		Uiso   ? 		O 		-0.981939
O 1.0  		0.70732091848587 		0.3623650637880275  0.6666233301914389 		Uiso   ? 		O 		-0.981939
O 1.0  		0.6729810189485201 		0.8635917566241414  0.6666233301914389 		Uiso   ? 		O 		-0.981939
O 1.0  		0.20462823022162413 		0.2983316977428852  0.4444697240549939 		Uiso   ? 		O 		-0.981928
O 1.0  		0.17371237811792664 		0.7983316977428853  0.4465823772223486 		Uiso   ? 		O 		-0.981928
O 1.0  		0.7058703523825053 		0.29784102060843964  0.4465823772223486 		Uiso   ? 		O 		-0.981928
O 1.0  		0.6719051691887288 		0.7951422963689893  0.4465823772223486 		Uiso   ? 		O 		-0.981928
O 1.0  		0.24470068590532537 		0.0414622178606477  0.4150550914941333 		Uiso   ? 		O 		-0.610636
O 1.0  		0.2166612215337402 		0.5399901864573111  0.4168427210972795 		Uiso   ? 		O 		-0.610636
O 1.0  		0.7480744603072852 		0.03631010794896958  0.4176552800078005 		Uiso   ? 		O 		-0.610636
O 1.0  		0.7195791687641566 		0.5407262021589795  0.4145675561478207 		Uiso   ? 		O 		-0.610636
O 1.0  		0.2072371530382986 		0.3039744847890089  0.6674358891019598 		Uiso   ? 		O 		-0.981937
O 1.0  		0.1738437619775892 		0.8002944062806674  0.6685734715766892 		Uiso   ? 		O 		-0.981937
O 1.0  		0.7079952992588333 		0.29784102060843964  0.6671108655377516 		Uiso   ? 		O 		-0.981937
O 1.0  		0.6722577612694125 		0.7988223748773308  0.6671108655377516 		Uiso   ? 		O 		-0.981937
O 1.0  		0.07229632102671418 		0.3086359175662414  0.3637013683492053 		Uiso   ? 		O 		-0.607706
O 1.0  		0.04208364491574634 		0.8096172718351325  0.3643514154776221 		Uiso   ? 		O 		-0.607706
O 1.0  		0.5749930600361094 		0.30765456329735036  0.3628888094386843 		Uiso   ? 		O 		-0.607706
O 1.0  		0.5390912922221103 		0.8061825318940138  0.3654889979523515 		Uiso   ? 		O 		-0.607706
O 1.0  		0.072843980728254 		0.3088812561334642  0.5829297624077745 		Uiso   ? 		O 		-0.607512
O 1.0  		0.042729842512033156 		0.8113346418056919  0.5842298566646081 		Uiso   ? 		O 		-0.607512
O 1.0  		0.573921873064557 		0.30593719332679103  0.5819546917151494 		Uiso   ? 		O 		-0.607512
O 1.0  		0.5390912922221103 		0.8061825318940138  0.5835798095361914 		Uiso   ? 		O 		-0.607512
O 1.0  		0.1925160674344279 		0.22055937193326794  0.36240127409237166 		Uiso   ? 		O 		-0.607705
O 1.0  		0.16029240124001787 		0.7200686947988224  0.3635388565671011 		Uiso   ? 		O 		-0.607705
O 1.0  		0.6940933546092161 		0.22031403336604516  0.36321383300289267 		Uiso   ? 		O 		-0.607705
O 1.0  		0.662204853428713 		0.7200686947988224  0.3630513212207885 		Uiso   ? 		O 		-0.607705
O 1.0  		0.1443447844127743 		0.24533856722276745  0.41066727337731984 		Uiso   ? 		O 		-1.138053
O 1.0  		0.11221094257972286 		0.7446025515210992  0.41147983228784085 		Uiso   ? 		O 		-1.138053
O 1.0  		0.6463799069277438 		0.24558390578999018  0.41066727337731984 		Uiso   ? 		O 		-1.138053
O 1.0  		0.6116217233798789 		0.7421491658488715  0.4109922969415282 		Uiso   ? 		O 		-1.138053
O 1.0  		0.19458403591431306 		0.22129538763493622  0.5839048331003998 		Uiso   ? 		O 		-0.607512
O 1.0  		0.16508324932946333 		0.7249754661432778  0.5847173920109208 		Uiso   ? 		O 		-0.607512
O 1.0  		0.6960058067979114 		0.22031403336604516  0.5827672506256703 		Uiso   ? 		O 		-0.607512
O 1.0  		0.6604392039978193 		0.7190873405299314  0.5842298566646081 		Uiso   ? 		O 		-0.607512
O 1.0  		0.07151203420601424 		0.3096172718351325  0.4147300679299249 		Uiso   ? 		O 		-0.607475
O 1.0  		0.0413563364914894 		0.8098626104023554  0.4148925797120291 		Uiso   ? 		O 		-0.607475
O 1.0  		0.5743468624398226 		0.30593719332679103  0.4155426268404459 		Uiso   ? 		O 		-0.607475
O 1.0  		0.5401296332287471 		0.8074092247301277  0.4173302564435921 		Uiso   ? 		O 		-0.607475
O 1.0  		0.07375965140861655 		0.30986261040235524  0.6337959502063899 		Uiso   ? 		O 		-0.607776
O 1.0  		0.04117668776877215 		0.8103532875368008  0.6350960444632235 		Uiso   ? 		O 		-0.607776
O 1.0  		0.5759328631479992 		0.30740922473012755  0.6355835798095362 		Uiso   ? 		O 		-0.607776
O 1.0  		0.5409139200494469 		0.8064278704612365  0.6357460915916403 		Uiso   ? 		O 		-0.607776
O 1.0  		0.19343173811479045 		0.221540726202159  0.41375499723729964 		Uiso   ? 		O 		-0.607474
O 1.0  		0.16258157794092418 		0.72252208047105  0.4139175090194039 		Uiso   ? 		O 		-0.607474
O 1.0  		0.6956465093524771 		0.22129538763493622  0.41603016218675853 		Uiso   ? 		O 		-0.607474
O 1.0  		0.6599156767278067 		0.7176153091265948  0.4152176032762375 		Uiso   ? 		O 		-0.607474
O 1.0  		0.14666680707859628 		0.24828263002944065  0.6302206910000975 		Uiso   ? 		O 		-1.138119
O 1.0  		0.11484399782792454 		0.749018645731109  0.6320083206032436 		Uiso   ? 		O 		-1.138119
O 1.0  		0.6481609752567764 		0.24362119725220807  0.6308707381285142 		Uiso   ? 		O 		-1.138119
O 1.0  		0.6140422839404479 		0.7465652600588814  0.6318458088211395 		Uiso   ? 		O 		-1.138119
O 1.0  		0.19511627671771398 		0.22448478900883223  0.6367211622842656 		Uiso   ? 		O 		-0.607778
O 1.0  		0.16267140230228275 		0.7222767419038273  0.6362336269379529 		Uiso   ? 		O 		-0.607778
O 1.0  		0.6946651467422832 		0.2193326790971541  0.6350960444632235 		Uiso   ? 		O 		-0.607778
O 1.0  		0.6644698976980922 		0.723748773307164  0.6363961387200572 		Uiso   ? 		O 		-0.607778
O 1.0  		0.33276331094666695 		0.041216879293424935  0.4170052328793837 		Uiso   ? 		O 		-0.607475
O 1.0  		0.30520581434679034 		0.5390088321884201  0.417167744661488 		Uiso   ? 		O 		-0.607475
O 1.0  		0.8343888629845096 		0.03851815505397449  0.4176552800078005 		Uiso   ? 		O 		-0.607475
O 1.0  		0.8062441553534271 		0.5402355250245339  0.417167744661488 		Uiso   ? 		O 		-0.607475
O 1.0  		0.3338586303497466 		0.04170755642787047  0.6321708323853479 		Uiso   ? 		O 		-0.607775
O 1.0  		0.30329336215809505 		0.5390088321884201  0.6331459030779731 		Uiso   ? 		O 		-0.607775
O 1.0  		0.835475468854201 		0.03729146221786065  0.6334709266421815 		Uiso   ? 		O 		-0.607775
O 1.0  		0.8053197711396762 		0.5375368007850835  0.6350960444632235 		Uiso   ? 		O 		-0.607775
O 1.0  		0.25070611942993865 		0.16609421000981356  0.41440504436571646 		Uiso   ? 		O 		-0.607472
O 1.0  		0.21849787213366753 		0.6626594700686949  0.4150550914941333 		Uiso   ? 		O 		-0.607472
O 1.0  		0.7488814834339641 		0.15947006869479885  0.41651769753307116 		Uiso   ? 		O 		-0.607472
O 1.0  		0.7145328703632259 		0.6589793915603533  0.4157051386225501 		Uiso   ? 		O 		-0.607472
O 1.0  		0.25249590129235966 		0.1658488714425908  0.6359086033737446 		Uiso   ? 		O 		-0.607774
O 1.0  		0.2174353986955035 		0.6626594700686949  0.6357460915916403 		Uiso   ? 		O 		-0.607774
O 1.0  		0.7457993063789694 		0.15628066732090287  0.6347710208990152 		Uiso   ? 		O 		-0.607774
O 1.0  		0.716322652225647 		0.6587340529931306  0.6355835798095362 		Uiso   ? 		O 		-0.607774
O 1.0  		0.3345772252406153 		0.03974484789008833  0.3659765332986641 		Uiso   ? 		O 		-0.607706
O 1.0  		0.30164166952008714 		0.5365554465161924  0.36483895082393475 		Uiso   ? 		O 		-0.607706
O 1.0  		0.8345356657423112 		0.03753680078508342  0.3659765332986641 		Uiso   ? 		O 		-0.607706
O 1.0  		0.8047895385049131 		0.5407262021589795  0.36467643904183056 		Uiso   ? 		O 		-0.607706
O 1.0  		0.33684226950999435 		0.04342492639842983  0.5832547859719829 		Uiso   ? 		O 		-0.607509
O 1.0  		0.3043075707332045 		0.5414622178606477  0.5811421328046283 		Uiso   ? 		O 		-0.607509
O 1.0  		0.8370614695623776 		0.038763493621197256  0.5829297624077745 		Uiso   ? 		O 		-0.607509
O 1.0  		0.8057206280834145 		0.5387634936211974  0.5826047388435661 		Uiso   ? 		O 		-0.607509
O 1.0  		0.2779409056235811 		0.30471050049067716  0.4147300679299249 		Uiso   ? 		O 		-0.610638
O 1.0  		0.24580706379052963 		0.8039744847890089  0.41586765040465434 		Uiso   ? 		O 		-0.610638
O 1.0  		0.7804995554085631 		0.30642787046123654  0.4150550914941333 		Uiso   ? 		O 		-0.610638
O 1.0  		0.7462977450956265 		0.8049558390579  0.4163551857509669 		Uiso   ? 		O 		-0.610638
O 1.0  		0.2538365613479878 		0.16683022571148187  0.36321383300289267 		Uiso   ? 		O 		-0.607704
O 1.0  		0.21749237709194644 		0.6619234543670266  0.3645139272597263 		Uiso   ? 		O 		-0.607704
O 1.0  		0.7465923067330578 		0.15701668302257116  0.3645139272597263 		Uiso   ? 		O 		-0.607704
O 1.0  		0.7181211476214564 		0.6602060843964671  0.36321383300289267 		Uiso   ? 		O 		-0.607704
O 1.0  		0.25201393352065116 		0.1665848871442591  0.5835798095361914 		Uiso   ? 		O 		-0.607509
O 1.0  		0.21633136575903544 		0.66045142296369  0.5834172977540871 		Uiso   ? 		O 		-0.607509
O 1.0  		0.7509166059489336 		0.1597154072620216  0.5830922741898787 		Uiso   ? 		O 		-0.607509
O 1.0  		0.7204673027188058 		0.6619234543670266  0.5843923684467124 		Uiso   ? 		O 		-0.607509
O 1.0  		0.10135914751051725 		0.33488714425907756  0.5509149413332466 		Uiso   ? 		O 		-0.600312
O 1.0  		0.06929971114068545 		0.8368498527968598  0.5510774531153508 		Uiso   ? 		O 		-0.600312
O 1.0  		0.6032628861658241 		0.3331697742885182  0.5501023824227256 		Uiso   ? 		O 		-0.600312
O 1.0  		0.5670916452677492 		0.8324337585868499  0.5507524295511423 		Uiso   ? 		O 		-0.600312
O 1.0  		0.2839584569757688 		0.3120706575073602  0.6354210680274319 		Uiso   ? 		O 		-0.610715
O 1.0  		0.24929881132265094 		0.810107948969578  0.6357460915916403 		Uiso   ? 		O 		-0.610715
O 1.0  		0.7857723712697171 		0.3105986261040236  0.6346085091169109 		Uiso   ? 		O 		-0.610715
O 1.0  		0.7513010878727049 		0.8098626104023554  0.6347710208990152 		Uiso   ? 		O 		-0.610715
O 1.0  		0.14518935070048167 		0.3579489695780177  0.41229239119836186 		Uiso   ? 		O 		-1.138053
O 1.0  		0.1155484667225809 		0.8579489695780177  0.41082978515942403 		Uiso   ? 		O 		-1.138053
O 1.0  		0.6482212547237839 		0.3572129538763494  0.41066727337731984 		Uiso   ? 		O 		-1.138053
O 1.0  		0.6117389812433294 		0.8550049067713446  0.41229239119836186 		Uiso   ? 		O 		-1.138053
O 1.0  		0.16868582462327542 		0.22644749754661436  0.5523775473721845 		Uiso   ? 		O 		-0.600309
O 1.0  		0.13752463186702943 		0.7259568204121689  0.5528650827184971 		Uiso   ? 		O 		-0.600309
O 1.0  		0.6689378706405744 		0.22227674190382732  0.5504274059869341 		Uiso   ? 		O 		-0.600309
O 1.0  		0.6359299176254645 		0.7227674190382729  0.5505899177690382 		Uiso   ? 		O 		-0.600309
O 1.0  		0.10077864184406174 		0.3341511285574093  0.447719959697078 		Uiso   ? 		O 		-0.600431
O 1.0  		0.06974883294747841 		0.835623159960746  0.4475574479149738 		Uiso   ? 		O 		-0.600431
O 1.0  		0.6035497863166766 		0.33586849852796863  0.4459323300939318 		Uiso   ? 		O 		-0.600431
O 1.0  		0.5692253056774658 		0.8341511285574092  0.4496701010823284 		Uiso   ? 		O 		-0.600431
O 1.0  		0.10333058626429323 		0.3405299313052012  0.663535606331459 		Uiso   ? 		O 		-0.599457
O 1.0  		0.06976626001425507 		0.8390578999018646  0.6664608184093346 		Uiso   ? 		O 		-0.599457
O 1.0  		0.6047590625126421 		0.33488714425907756  0.666785841973543 		Uiso   ? 		O 		-0.599457
O 1.0  		0.5702395142525752 		0.836604514229637  0.6674358891019598 		Uiso   ? 		O 		-0.599457
O 1.0  		0.168006781062073 		0.22423945044160945  0.44576981831182755 		Uiso   ? 		O 		-0.600429
O 1.0  		0.13410728979812775 		0.72252208047105  0.4459323300939318 		Uiso   ? 		O 		-0.600429
O 1.0  		0.6692817491878699 		0.22423945044160945  0.4478824714791822 		Uiso   ? 		O 		-0.600429
O 1.0  		0.6327907621740269 		0.7203140333660452  0.4478824714791822 		Uiso   ? 		O 		-0.600429
O 1.0  		0.1682367028164825 		0.2276741903827282  0.6679234244482725 		Uiso   ? 		O 		-0.599455
O 1.0  		0.13341282733878634 		0.7232580961727184  0.6677609126661682 		Uiso   ? 		O 		-0.599455
O 1.0  		0.6699674981138227 		0.22178606476938179  0.6684109597945851 		Uiso   ? 		O 		-0.599455
O 1.0  		0.6337151463877777 		0.7230127576054957  0.6671108655377516 		Uiso   ? 		O 		-0.599455
O 1.0  		0.14814014389581368 		0.3591756624141315  0.6292456203074722 		Uiso   ? 		O 		-1.138119
O 1.0  		0.1171344674307575 		0.8594210009813543  0.6324958559495563 		Uiso   ? 		O 		-1.138119
O 1.0  		0.6476977274537713 		0.35574092247301276  0.6305457145643059 		Uiso   ? 		O 		-1.138119
O 1.0  		0.6135287631057503 		0.8547595682041218  0.6308707381285142 		Uiso   ? 		O 		-1.138119
O 1.0  		0.35934189310870757 		0.06844946025515213  0.44934507751812003 		Uiso   ? 		O 		-0.600432
O 1.0  		0.33189164793696624 		0.5694308145240433  0.44820749504339064 		Uiso   ? 		O 		-0.600432
O 1.0  		0.8616706211392801 		0.06673209028459275  0.4495075893002242 		Uiso   ? 		O 		-0.600432
O 1.0  		0.8330110997715732 		0.568694798822375  0.4478824714791822 		Uiso   ? 		O 		-0.600432
O 1.0  		0.3632324894159294 		0.06943081452404318  0.6646731888061884 		Uiso   ? 		O 		-0.599471
O 1.0  		0.3289408547416342 		0.5682041216879293  0.6656482594988137 		Uiso   ? 		O 		-0.599471
O 1.0  		0.8636554706225572 		0.06305201177625123  0.665160724152501 		Uiso   ? 		O 		-0.599471
O 1.0  		0.8328314510488559 		0.5691854759568205  0.666785841973543 		Uiso   ? 		O 		-0.599471
O 1.0  		0.2527003633054413 		0.14033366045142295  0.44576981831182755 		Uiso   ? 		O 		-0.600433
O 1.0  		0.2177779499329983 		0.6344455348380765  0.446094841876036 		Uiso   ? 		O 		-0.600433
O 1.0  		0.7500498809904629 		0.13248282630029443  0.4490200539539116 		Uiso   ? 		O 		-0.600433
O 1.0  		0.7190200720938795 		0.6339548577036311  0.44820749504339064 		Uiso   ? 		O 		-0.600433
O 1.0  		0.2529611228561287 		0.13788027477919532  0.667598400884064 		Uiso   ? 		O 		-0.599439
O 1.0  		0.21584807067752626 		0.6310107948969579  0.6666233301914389 		Uiso   ? 		O 		-0.599439
O 1.0  		0.7474738041387041 		0.12733071638861632  0.6661357948451263 		Uiso   ? 		O 		-0.599439
O 1.0  		0.7189785125955754 		0.6317468105986263  0.667598400884064 		Uiso   ? 		O 		-0.599439
O 1.0  		0.36299586229676933 		0.07065750736015702  0.5505899177690382 		Uiso   ? 		O 		-0.600312
O 1.0  		0.335153473714678 		0.5721295387634936  0.5505899177690382 		Uiso   ? 		O 		-0.600312
O 1.0  		0.8647682170924136 		0.06697742885181551  0.5509149413332466 		Uiso   ? 		O 		-0.600312
O 1.0  		0.8340735732097373 		0.568694798822375  0.551239964897455 		Uiso   ? 		O 		-0.600312
O 1.0  		0.2529698363895171 		0.13959764474975467  0.5510774531153508 		Uiso   ? 		O 		-0.600312
O 1.0  		0.2178590607609685 		0.6324828263002944  0.5515649884616635 		Uiso   ? 		O 		-0.600312
O 1.0  		0.7486348154716151 		0.12880274779195292  0.5502648942048298 		Uiso   ? 		O 		-0.600312
O 1.0  		0.7204746889423934 		0.6334641805691855  0.5522150355900802 		Uiso   ? 		O 		-0.600312
O 1.0  		0.06846743471992192 		0.21810598626104025  0.3635388565671011 		Uiso   ? 		O 		-0.610676
O 1.0  		0.0408723949590169 		0.7264474975466143  0.36321383300289267 		Uiso   ? 		O 		-0.610676
O 1.0  		0.5735190423600548 		0.22055937193326794  0.36175122696395484 		Uiso   ? 		O 		-0.610676
O 1.0  		0.5393105266823676 		0.723748773307164  0.3630513212207885 		Uiso   ? 		O 		-0.610676
O 1.0  		0.31608399087127814 		0.40947006869479885  0.3913283713069197 		Uiso   ? 		O 		-0.587225
O 1.0  		0.28564139300590075 		0.9070166830225712  0.39100334774271134 		Uiso   ? 		O 		-0.587225
O 1.0  		0.818478410831682 		0.40873405299313054  0.39100334774271134 		Uiso   ? 		O 		-0.587225
O 1.0  		0.7837048083856781 		0.9082433758586851  0.3913283713069197 		Uiso   ? 		O 		-0.587225
O 1.0  		0.31966556276475805 		0.4153581943081453  0.6112068124939057 		Uiso   ? 		O 		-0.587186
O 1.0  		0.2862721717040487 		0.9116781157998038  0.6100692300191763 		Uiso   ? 		O 		-0.587186
O 1.0  		0.8178496403021719 		0.4104514229636899  0.6077940650697176 		Uiso   ? 		O 		-0.587186
O 1.0  		0.784015840968058 		0.9097154072620217  0.6064939708128839 		Uiso   ? 		O 		-0.587186
O 1.0  		0.09249267633618276 		0.36432777232580965  0.3913283713069197 		Uiso   ? 		O 		-0.587233
O 1.0  		0.06452761742781726 		0.8655544651619236  0.3880781356648357 		Uiso   ? 		O 		-0.587233
O 1.0  		0.5939057336863927 		0.3616290480863592  0.3879156238827315 		Uiso   ? 		O 		-0.587233
O 1.0  		0.5601047803171945 		0.8613837095191366  0.3905158123963987 		Uiso   ? 		O 		-0.587233
O 1.0  		0.09273801698873123 		0.3648184494602552  0.6086066239802386 		Uiso   ? 		O 		-0.587202
O 1.0  		0.061005032099418044 		0.8653091265947008  0.6110443007118015 		Uiso   ? 		O 		-0.587202
O 1.0  		0.5935135902760428 		0.3621197252208047  0.6100692300191763 		Uiso   ? 		O 		-0.587202
O 1.0  		0.5566391733852382 		0.8604023552502454  0.6097442064549679 		Uiso   ? 		O 		-0.587202
O 1.0  		0.25476220405579153 		0.35525024533856725  0.4109922969415282 		Uiso   ? 		O 		-1.138054
O 1.0  		0.2252439904041651 		0.8554955839057901  0.41147983228784085 		Uiso   ? 		O 		-1.138054
O 1.0  		0.7577699756475664 		0.35574092247301276  0.41147983228784085 		Uiso   ? 		O 		-1.138054
O 1.0  		0.7243940116536338 		0.8554955839057901  0.4119673676341535 		Uiso   ? 		O 		-1.138054
O 1.0  		0.1362673316631264 		0.18498527968596665  0.3880781356648357 		Uiso   ? 		O 		-0.587230
O 1.0  		0.10556397424706168 		0.6849852796859667  0.3898657652679819 		Uiso   ? 		O 		-0.587230
O 1.0  		0.6403617091245927 		0.18424926398429836  0.3880781356648357 		Uiso   ? 		O 		-0.587230
O 1.0  		0.6045826116368678 		0.6830225711481845  0.38661552962589785 		Uiso   ? 		O 		-0.587230
O 1.0  		0.1398556089213569 		0.1862119725220805  0.6103942535833847 		Uiso   ? 		O 		-0.587201
O 1.0  		0.10712584252371102 		0.6876840039254172  0.6097442064549679 		Uiso   ? 		O 		-0.587201
O 1.0  		0.6425107884324481 		0.18302257114818452  0.6095816946728637 		Uiso   ? 		O 		-0.587201
O 1.0  		0.6067249855799726 		0.6864573110893033  0.6108817889296974 		Uiso   ? 		O 		-0.587201
O 1.0  		0.24710381939911752 		0.04244357212953877  0.5821172034972535 		Uiso   ? 		O 		-0.610686
O 1.0  		0.219055641494144 		0.5392541707556429  0.5829297624077745 		Uiso   ? 		O 		-0.610686
O 1.0  		0.7484666037176352 		0.035819430814524045  0.5811421328046283 		Uiso   ? 		O 		-0.610686
O 1.0  		0.7203963015497722 		0.5402355250245339  0.5832547859719829 		Uiso   ? 		O 		-0.610686
O 1.0  		0.07539194321908385 		0.22473012757605498  0.5821172034972535 		Uiso   ? 		O 		-0.610690
O 1.0  		0.04228545230922698 		0.723748773307164  0.5835798095361914 		Uiso   ? 		O 		-0.610690
O 1.0  		0.5742463507843117 		0.22031403336604516  0.5843923684467124 		Uiso   ? 		O 		-0.610690
O 1.0  		0.5406578921027463 		0.7200686947988224  0.5842298566646081 		Uiso   ? 		O 		-0.610690
O 1.0  		0.4417682852825636 		0.2855740922473013  0.38921571813956507 		Uiso   ? 		O 		-0.587225
O 1.0  		0.4085304105130441 		0.7826300294406281  0.39100334774271134 		Uiso   ? 		O 		-0.587225
O 1.0  		0.9385962838662103 		0.2826300294406281  0.39019078883219027 		Uiso   ? 		O 		-0.587225
O 1.0  		0.9053845496968559 		0.784838076545633  0.39116585952481553 		Uiso   ? 		O 		-0.587225
O 1.0  		0.44091830653203234 		0.2855740922473013  0.6099067182370722 		Uiso   ? 		O 		-0.587191
O 1.0  		0.40416655996750206 		0.7841020608439648  0.6100692300191763 		Uiso   ? 		O 		-0.587191
O 1.0  		0.9381625809575563 		0.2809126594700687  0.612994442097052 		Uiso   ? 		O 		-0.587191
O 1.0  		0.9089969593866136 		0.784838076545633  0.6094191828907596 		Uiso   ? 		O 		-0.587191
O 1.0  		0.2583109299843558 		0.36064769381746814  0.6320083206032436 		Uiso   ? 		O 		-1.138125
O 1.0  		0.2246809118044863 		0.8581943081452406  0.6313582734748269 		Uiso   ? 		O 		-1.138125
O 1.0  		0.7570996456197524 		0.35525024533856725  0.6302206910000975 		Uiso   ? 		O 		-1.138125
O 1.0  		0.726168374617916 		0.8581943081452406  0.6305457145643059 		Uiso   ? 		O 		-1.138125
O 1.0  		0.38937403319087777 		0.05839057899901865  0.3927909773458575 		Uiso   ? 		O 		-0.587235
O 1.0  		0.35800034574699896 		0.5578999018645732  0.38954074170377345 		Uiso   ? 		O 		-0.587235
O 1.0  		0.8910082987621089 		0.057409224730127585  0.39262846556375336 		Uiso   ? 		O 		-0.587235
O 1.0  		0.8622589530330435 		0.5596172718351325  0.3906783241785029 		Uiso   ? 		O 		-0.587235
O 1.0  		0.39105857179380127 		0.06133464180569186  0.6081190886339259 		Uiso   ? 		O 		-0.587197
O 1.0  		0.35809888364174586 		0.5593719332679097  0.6068189943770923 		Uiso   ? 		O 		-0.587197
O 1.0  		0.8929864428806356 		0.05839057899901865  0.608931647544447 		Uiso   ? 		O 		-0.587197
O 1.0  		0.8618011176928622 		0.5591265947006869  0.6077940650697176 		Uiso   ? 		O 		-0.587197
O 1.0  		0.21476102480411488 		0.11162904808635919  0.38824064744693987 		Uiso   ? 		O 		-0.587232
O 1.0  		0.1811792714873 		0.6067222767419038  0.3900282770500861 		Uiso   ? 		O 		-0.587232
O 1.0  		0.7126494886572878 		0.10230618253189402  0.39181590665323235 		Uiso   ? 		O 		-0.587232
O 1.0  		0.6824696585112358 		0.6037782139352307  0.38889069457535663 		Uiso   ? 		O 		-0.587232
O 1.0  		0.2141805191376594 		0.11089303238469089  0.6097442064549679 		Uiso   ? 		O 		-0.587200
O 1.0  		0.18196355830799993 		0.6057409224730128  0.6103942535833847 		Uiso   ? 		O 		-0.587200
O 1.0  		0.7135980053025661 		0.10377821393523062  0.6063314590307797 		Uiso   ? 		O 		-0.587200
O 1.0  		0.6817095041220631 		0.6035328753680079  0.6092566711086553 		Uiso   ? 		O 		-0.587200
O 1.0  		0.24700528150437062 		0.04097154072620216  0.6357460915916403 		Uiso   ? 		O 		-0.610705
O 1.0  		0.21895710359939716 		0.5377821393523062  0.6328208795137648 		Uiso   ? 		O 		-0.610705
O 1.0  		0.7494720987593563 		0.036555446516192344  0.6331459030779731 		Uiso   ? 		O 		-0.610705
O 1.0  		0.7211236099740292 		0.5399901864573111  0.6334709266421815 		Uiso   ? 		O 		-0.610705
O 1.0  		0.21387956180634243 		0.06354268891069677  0.38742808853641886 		Uiso   ? 		O 		-0.587042
O 1.0  		0.18006118137036742 		0.5598626104023553  0.39019078883219027 		Uiso   ? 		O 		-0.587042
O 1.0  		0.7125610260136038 		0.054955839057899906  0.3884031592290441 		Uiso   ? 		O 		-0.587042
O 1.0  		0.6842125372282766 		0.5583905789990187  0.38954074170377345 		Uiso   ? 		O 		-0.587042
O 1.0  		0.21372404551515256 		0.06280667320902847  0.608931647544447 		Uiso   ? 		O 		-0.587104
O 1.0  		0.18215328228177985 		0.5593719332679097  0.6079565768518217 		Uiso   ? 		O 		-0.587104
O 1.0  		0.7128720585959835 		0.05642787046123651  0.6095816946728637 		Uiso   ? 		O 		-0.587104
O 1.0  		0.6836320315618212 		0.5576545632973504  0.6087691357623427 		Uiso   ? 		O 		-0.587104
O 1.0  		0.4363581298715814 		0.10475956820412169  0.38954074170377345 		Uiso   ? 		O 		-0.587043
O 1.0  		0.40476323420668137 		0.6025515210991168  0.3908408359606071 		Uiso   ? 		O 		-0.587043
O 1.0  		0.9373877573448298 		0.10426889106967616  0.38937822992166926 		Uiso   ? 		O 		-0.587043
O 1.0  		0.9095869282610425 		0.6079489695780178  0.3908408359606071 		Uiso   ? 		O 		-0.587043
O 1.0  		0.4377075034605979 		0.10745829244357213  0.6076315532876133 		Uiso   ? 		O 		-0.587107
O 1.0  		0.40514867225228085 		0.6067222767419038  0.6090941593265512 		Uiso   ? 		O 		-0.587107
O 1.0  		0.9406495831225415 		0.1069676153091266  0.608931647544447 		Uiso   ? 		O 		-0.587107
O 1.0  		0.9074861138162417 		0.6067222767419038  0.6074690415055091 		Uiso   ? 		O 		-0.587107
O 1.0  		0.3961234869398137 		0.28778213935230623  0.38726557675431467 		Uiso   ? 		O 		-0.587041
O 1.0  		0.3625832931213027 		0.7850834151128558  0.3877531121006273 		Uiso   ? 		O 		-0.587041
O 1.0  		0.8899832652613516 		0.2801766437684004  0.3908408359606071 		Uiso   ? 		O 		-0.587041
O 1.0  		0.8574090151548956 		0.7823846908734053  0.3914908830890239 		Uiso   ? 		O 		-0.587041
O 1.0  		0.3931639802110932 		0.28483807654563303  0.6103942535833847 		Uiso   ? 		O 		-0.587105
O 1.0  		0.35794125595829657 		0.7855740922473013  0.6097442064549679 		Uiso   ? 		O 		-0.587105
O 1.0  		0.891069871131043 		0.2789499509322866  0.6118568596223226 		Uiso   ? 		O 		-0.587105
O 1.0  		0.8619786550233199 		0.7855740922473013  0.6099067182370722 		Uiso   ? 		O 		-0.587105
O 1.0  		0.09022167637663812 		0.1859666339548577  0.38905320635746093 		Uiso   ? 		O 		-0.587042
O 1.0  		0.0582433508347765 		0.6859666339548577  0.3897032534858777 		Uiso   ? 		O 		-0.587042
O 1.0  		0.5937683941365646 		0.18498527968596665  0.3885656710111483 		Uiso   ? 		O 		-0.587042
O 1.0  		0.5576869775998483 		0.6840039254170756  0.38726557675431467 		Uiso   ? 		O 		-0.587042
O 1.0  		0.09408814025233268 		0.18817468105986263  0.6073065297234049 		Uiso   ? 		O 		-0.587105
O 1.0  		0.06122698999502424 		0.6876840039254172  0.6116943478402184 		Uiso   ? 		O 		-0.587105
O 1.0  		0.5956480003603443 		0.18449460255152111  0.6094191828907596 		Uiso   ? 		O 		-0.587105
O 1.0  		0.5594854729956578 		0.6854759568204123  0.6082816004160301 		Uiso   ? 		O 		-0.587105
O 1.0  		0.14050640049013483 		0.41020608439646716  0.38937822992166926 		Uiso   ? 		O 		-0.587040
O 1.0  		0.11124224102444524 		0.912659470068695  0.38921571813956507 		Uiso   ? 		O 		-0.587040
O 1.0  		0.6407671600408221 		0.40775269872423947  0.3879156238827315 		Uiso   ? 		O 		-0.587040
O 1.0  		0.6086748777060746 		0.9092247301275761  0.39165339487112816 		Uiso   ? 		O 		-0.587040
O 1.0  		0.13869248619618646 		0.41167811579980373  0.6079565768518217 		Uiso   ? 		O 		-0.587105
O 1.0  		0.10750716100841323 		0.9124141315014721  0.6133194656612604 		Uiso   ? 		O 		-0.587105
O 1.0  		0.6404078625953878 		0.40873405299313054  0.6073065297234049 		Uiso   ? 		O 		-0.587105
O 1.0  		0.602838983245242 		0.9077526987242396  0.6107192771475931 		Uiso   ? 		O 		-0.587105
O 1.0  		0.3158728579013198 		0.361874386653582  0.38872818279325244 		Uiso   ? 		O 		-0.587043
O 1.0  		0.28424511627150406 		0.8591756624141316  0.3908408359606071 		Uiso   ? 		O 		-0.587043
O 1.0  		0.8174501450761079 		0.3616290480863592  0.38937822992166926 		Uiso   ? 		O 		-0.587043
O 1.0  		0.783616345741994 		0.860893032384691  0.3914908830890239 		Uiso   ? 		O 		-0.587043
O 1.0  		0.31896374848970277 		0.36678115799803734  0.610556765365489 		Uiso   ? 		O 		-0.587111
O 1.0  		0.28627353342172307 		0.8640824337585868  0.6102317418012805 		Uiso   ? 		O 		-0.587111
O 1.0  		0.8188564970615675 		0.36359175662414134  0.6084441121981343 		Uiso   ? 		O 		-0.587111
O 1.0  		0.7843282352681121 		0.8635917566241414  0.6082816004160301 		Uiso   ? 		O 		-0.587111
O 1.0  		0.41672747337351884 		0.18449460255152111  0.3914908830890239 		Uiso   ? 		O 		-0.929718
O 1.0  		0.3837677852214635 		0.682531894013739  0.3900282770500861 		Uiso   ? 		O 		-0.929718
O 1.0  		0.9182062226535602 		0.18277723258096173  0.38889069457535663 		Uiso   ? 		O 		-0.929718
O 1.0  		0.8864819512976354 		0.6849852796859667  0.3908408359606071 		Uiso   ? 		O 		-0.929718
O 1.0  		0.41691583562962437 		0.18572129538763496  0.6094191828907596 		Uiso   ? 		O 		-0.929711
O 1.0  		0.38198671689243074 		0.6844946025515212  0.6092566711086553 		Uiso   ? 		O 		-0.929711
O 1.0  		0.9170780572855647 		0.18179587831207067  0.6092566711086553 		Uiso   ? 		O 		-0.929711
O 1.0  		0.88590144563118 		0.6842492639842984  0.6092566711086553 		Uiso   ? 		O 		-0.929711
O 1.0  		0.2785871032198679 		0.30642787046123654  0.3628888094386843 		Uiso   ? 		O 		-0.610675
O 1.0  		0.24903604360332576 		0.8061825318940138  0.3635388565671011 		Uiso   ? 		O 		-0.610675
O 1.0  		0.7818402154641912 		0.30740922473012755  0.36418890369551793 		Uiso   ? 		O 		-0.610675
O 1.0  		0.7477369430460016 		0.8074092247301277  0.3645139272597263 		Uiso   ? 		O 		-0.610675
O 1.0  		0.31626775915489247 		0.1884200196270854  0.39100334774271134 		Uiso   ? 		O 		-0.929719
O 1.0  		0.2827845437328245 		0.6849852796859667  0.38921571813956507 		Uiso   ? 		O 		-0.929719
O 1.0  		0.8123423087141172 		0.18056918547595682  0.3905158123963987 		Uiso   ? 		O 		-0.929719
O 1.0  		0.7787712770993285 		0.6837585868498528  0.3898657652679819 		Uiso   ? 		O 		-0.929719
O 1.0  		0.31434659343280885 		0.18670264965652603  0.6090941593265512 		Uiso   ? 		O 		-0.929711
O 1.0  		0.27975263970952224 		0.6857212953876349  0.6074690415055091 		Uiso   ? 		O 		-0.929711
O 1.0  		0.8124649790403914 		0.1808145240431796  0.6110443007118015 		Uiso   ? 		O 		-0.929711
O 1.0  		0.7825961814767189 		0.6837585868498528  0.6097442064549679 		Uiso   ? 		O 		-0.929711
O 1.0  		0.3119026157074237 		0.08194308145240432  0.3905158123963987 		Uiso   ? 		O 		-0.929717
O 1.0  		0.28034056600743945 		0.5802257114818451  0.3913283713069197 		Uiso   ? 		O 		-0.929717
O 1.0  		0.8125468051350726 		0.07728164867517175  0.3906783241785029 		Uiso   ? 		O 		-0.929717
O 1.0  		0.7846320192583996 		0.58243375858685  0.3903533006142945 		Uiso   ? 		O 		-0.929717
O 1.0  		0.3122706266862464 		0.08267909715407264  0.6074690415055091 		Uiso   ? 		O 		-0.929709
O 1.0  		0.28153442330526607 		0.5821884200196272  0.6086066239802386 		Uiso   ? 		O 		-0.929709
O 1.0  		0.8133813649874649 		0.08022571148184496  0.6073065297234049 		Uiso   ? 		O 		-0.929709
O 1.0  		0.7840186676270285 		0.5812070657507361  0.608931647544447 		Uiso   ? 		O 		-0.929709
O 1.0  		0.2848982600876586 		0.3118253189401374  0.5847173920109208 		Uiso   ? 		O 		-0.610692
O 1.0  		0.24902062470518682 		0.809126594700687  0.5835798095361914 		Uiso   ? 		O 		-0.610692
O 1.0  		0.7847340302630803 		0.30937193326790974  0.5829297624077745 		Uiso   ? 		O 		-0.610692
O 1.0  		0.7470578994847992 		0.8052011776251228  0.5827672506256703 		Uiso   ? 		O 		-0.610692
O 1.0  		0.2929717997236526 		0.12610402355250247  0.5180875613481978 		Uiso   ? 		O 		-0.554705
O 1.0  		0.2573133643935641 		0.6187438665358195  0.5182500731303019 		Uiso   ? 		O 		-0.554705
O 1.0  		0.7907375932505514 		0.11653581943081454  0.5174375142197809 		Uiso   ? 		O 		-0.554705
O 1.0  		0.7613440580938369 		0.623405299313052  0.5180875613481978 		Uiso   ? 		O 		-0.554705
O 1.0  		0.21694819050034042 		0.38714425907752703  0.3906783241785029 		Uiso   ? 		O 		-0.929719
O 1.0  		0.18600820596511558 		0.8883709519136409  0.38954074170377345 		Uiso   ? 		O 		-0.929719
O 1.0  		0.7197763133693983 		0.3881256133464181  0.3897032534858777 		Uiso   ? 		O 		-0.929719
O 1.0  		0.6848143486672889 		0.8864082433758588  0.3906783241785029 		Uiso   ? 		O 		-0.929719
O 1.0  		0.2187071345664836 		0.3927870461236507  0.6069815061591964 		Uiso   ? 		O 		-0.929709
O 1.0  		0.18632795208088365 		0.8915603532875369  0.608931647544447 		Uiso   ? 		O 		-0.929709
O 1.0  		0.7181333342647787 		0.3873895976447498  0.6086066239802386 		Uiso   ? 		O 		-0.929709
O 1.0  		0.6832786209908047 		0.8888616290480865  0.6086066239802386 		Uiso   ? 		O 		-0.929709
O 1.0  		0.21515912390463046 		0.2858194308145241  0.3877531121006273 		Uiso   ? 		O 		-0.929719
O 1.0  		0.18511738298299146 		0.7845927379784102  0.3879156238827315 		Uiso   ? 		O 		-0.929719
O 1.0  		0.7191636770047382 		0.28532875368007854  0.3898657652679819 		Uiso   ? 		O 		-0.929719
O 1.0  		0.6835642282397304 		0.7836113837095192  0.3897032534858777 		Uiso   ? 		O 		-0.929719
O 1.0  		0.21893576341896645 		0.28827281648675174  0.6097442064549679 		Uiso   ? 		O 		-0.929710
O 1.0  		0.18653244850183925 		0.7882728164867518  0.610556765365489 		Uiso   ? 		O 		-0.929710
O 1.0  		0.7200706341517122 		0.2845927379784102  0.608931647544447 		Uiso   ? 		O 		-0.929710
O 1.0  		0.6843002501973758 		0.7850834151128558  0.6110443007118015 		Uiso   ? 		O 		-0.929710
O 1.0  		0.1131288278759664 		0.28532875368007854  0.3898657652679819 		Uiso   ? 		O 		-0.929717
O 1.0  		0.08270365707736571 		0.7863101079489697  0.3898657652679819 		Uiso   ? 		O 		-0.929717
O 1.0  		0.6150412800646616 		0.28532875368007854  0.3880781356648357 		Uiso   ? 		O 		-0.929717
O 1.0  		0.5805371507027337 		0.7841020608439648  0.39165339487112816 		Uiso   ? 		O 		-0.929717
O 1.0  		0.11612118056960245 		0.2887634936211973  0.6079565768518217 		Uiso   ? 		O 		-0.929707
O 1.0  		0.08285917336855564 		0.787046123650638  0.6079565768518217 		Uiso   ? 		O 		-0.929707
O 1.0  		0.6174357000250655 		0.2845927379784102  0.6107192771475931 		Uiso   ? 		O 		-0.929707
O 1.0  		0.5800464693976368 		0.7831207065750737  0.6094191828907596 		Uiso   ? 		O 		-0.929707
O 1.0  		0.19822986920420205 		0.43130520117762516  0.3666265804270809 		Uiso   ? 		O 		-0.610674
O 1.0  		0.16670066546913337 		0.9300785083415114  0.36483895082393475 		Uiso   ? 		O 		-0.610674
O 1.0  		0.6989484640950706 		0.42934249263984303  0.3637013683492053 		Uiso   ? 		O 		-0.610674
O 1.0  		0.6623763662532575 		0.9273797841020609  0.36613904508076833 		Uiso   ? 		O 		-0.610674
O 1.0  		0.16422067833976364 		0.3994111874386654  0.5509149413332466 		Uiso   ? 		O 		-0.584061
O 1.0  		0.13578236519307801 		0.903091265947007  0.551239964897455 		Uiso   ? 		O 		-0.584061
O 1.0  		0.6706940568634948 		0.40088321884200195  0.5501023824227256 		Uiso   ? 		O 		-0.584061
O 1.0  		0.6332391343062348 		0.8984298331697743  0.551239964897455 		Uiso   ? 		O 		-0.584061
O 1.0  		0.1930730183045717 		0.4320412168792934  0.5806545974583157 		Uiso   ? 		O 		-0.610688
O 1.0  		0.16179786875543983 		0.9330225711481845  0.5842298566646081 		Uiso   ? 		O 		-0.610688
O 1.0  		0.697461001281641 		0.42934249263984303  0.5813046445867325 		Uiso   ? 		O 		-0.610688
O 1.0  		0.6578811318480529 		0.9268891069676154  0.5837423213182955 		Uiso   ? 		O 		-0.610688
O 1.0  		0.45738033150005397 		0.16167811579980376  0.36483895082393475 		Uiso   ? 		O 		-0.610674
O 1.0  		0.42428925948833596 		0.6577526987242395  0.3643514154776221 		Uiso   ? 		O 		-0.610674
O 1.0  		0.9545347815642193 		0.15726202158979394  0.3630513212207885 		Uiso   ? 		O 		-0.610674
O 1.0  		0.928442623514883 		0.6626594700686949  0.3645139272597263 		Uiso   ? 		O 		-0.610674
O 1.0  		0.4292331756966134 		0.13640824337585872  0.5510774531153508 		Uiso   ? 		O 		-0.584062
O 1.0  		0.39724613662136343 		0.6346908734052994  0.5523775473721845 		Uiso   ? 		O 		-0.584062
O 1.0  		0.9313735414710804 		0.1334641805691855  0.5522150355900802 		Uiso   ? 		O 		-0.584062
O 1.0  		0.8986853345717385 		0.637144259077527  0.5517275002437676 		Uiso   ? 		O 		-0.584062
O 1.0  		0.4574460234298852 		0.16265947006869483  0.5830922741898787 		Uiso   ? 		O 		-0.610687
O 1.0  		0.425434851923108 		0.6621687929342492  0.5839048331003998 		Uiso   ? 		O 		-0.610687
O 1.0  		0.958679432057378 		0.16045142296368992  0.5842298566646081 		Uiso   ? 		O 		-0.610687
O 1.0  		0.9275028204029931 		0.6629048086359176  0.5834172977540871 		Uiso   ? 		O 		-0.610687
O 1.0  		0.19533605440531296 		0.42934249263984303  0.4173302564435921 		Uiso   ? 		O 		-0.610637
O 1.0  		0.1663085220587835 		0.9305691854759569  0.4150550914941333 		Uiso   ? 		O 		-0.610637
O 1.0  		0.6968235172187426 		0.42934249263984303  0.41586765040465434 		Uiso   ? 		O 		-0.610637
O 1.0  		0.6631365206424301 		0.9276251226692838  0.4168427210972795 		Uiso   ? 		O 		-0.610637
O 1.0  		0.16583081147946754 		0.3996565260058882  0.4495075893002242 		Uiso   ? 		O 		-0.584201
O 1.0  		0.13894565307604284 		0.9043179587831208  0.4478824714791822 		Uiso   ? 		O 		-0.584201
O 1.0  		0.6696315834253308 		0.40088321884200195  0.44820749504339064 		Uiso   ? 		O 		-0.584201
O 1.0  		0.6352172784247614 		0.8994111874386654  0.4488575421718074 		Uiso   ? 		O 		-0.584201
O 1.0  		0.19526365711073107 		0.4330225711481845  0.6326583677316605 		Uiso   ? 		O 		-0.610704
O 1.0  		0.16528760811892335 		0.9327772325809618  0.6359086033737446 		Uiso   ? 		O 		-0.610704
O 1.0  		0.6976734959692739 		0.42934249263984303  0.6341209737705984 		Uiso   ? 		O 		-0.610704
O 1.0  		0.6602514193769293 		0.9273797841020609  0.6334709266421815 		Uiso   ? 		O 		-0.610704
O 1.0  		0.1671319202054295 		0.4048086359175663  0.6649982123703968 		Uiso   ? 		O 		-0.582774
O 1.0  		0.13803869592906864 		0.9050539744847891  0.6682484480124808 		Uiso   ? 		O 		-0.582774
O 1.0  		0.6719690249892917 		0.40088321884200195  0.6664608184093346 		Uiso   ? 		O 		-0.582774
O 1.0  		0.6344417051374498 		0.9021099116781159  0.666785841973543 		Uiso   ? 		O 		-0.582774
O 1.0  		0.45589286868662426 		0.16167811579980376  0.4174927682256963 		Uiso   ? 		O 		-0.610637
O 1.0  		0.42529475453005705 		0.6584887144259078  0.41603016218675853 		Uiso   ? 		O 		-0.610637
O 1.0  		0.9581317723558381 		0.16020608439646714  0.4148925797120291 		Uiso   ? 		O 		-0.610637
O 1.0  		0.9282059963957228 		0.6638861629048087  0.4174927682256963 		Uiso   ? 		O 		-0.610637
O 1.0  		0.42798234000234386 		0.13518155053974487  0.4491825657360158 		Uiso   ? 		O 		-0.584204
O 1.0  		0.39572582784301813 		0.6342001962708538  0.44804498326128644 		Uiso   ? 		O 		-0.584204
O 1.0  		0.9281445616582842 		0.13125613346418058  0.4472324243507654 		Uiso   ? 		O 		-0.584204
O 1.0  		0.8981289613368104 		0.6351815505397449  0.4491825657360158 		Uiso   ? 		O 		-0.584204
O 1.0  		0.4575599802227711 		0.16118743866535823  0.6347710208990152 		Uiso   ? 		O 		-0.610710
O 1.0  		0.42403721347103696 		0.6619234543670266  0.6372086976305782 		Uiso   ? 		O 		-0.610710
O 1.0  		0.9579675425312599 		0.15775269872423947  0.6349335326811193 		Uiso   ? 		O 		-0.610710
O 1.0  		0.9258028629019306 		0.6629048086359176  0.6360711151558488 		Uiso   ? 		O 		-0.610710
O 1.0  		0.42903609990711955 		0.1334641805691855  0.665973283063022 		Uiso   ? 		O 		-0.582768
O 1.0  		0.3951781681414783 		0.6339548577036311  0.6688984951408976 		Uiso   ? 		O 		-0.582768
O 1.0  		0.9291741891315327 		0.13076545632973505  0.666785841973543 		Uiso   ? 		O 		-0.582768
O 1.0  		0.8978749071508736 		0.63297350343474  0.6669483537556472 		Uiso   ? 		O 		-0.582768
O 1.0  		0.25011291830069304 		0.07311089303238469  0.5509149413332466 		Uiso   ? 		O 		-0.584063
O 1.0  		0.21986538805617184 		0.5672227674190383  0.5509149413332466 		Uiso   ? 		O 		-0.584063
O 1.0  		0.7517451757032865 		0.06575073601570168  0.5494523352943088 		Uiso   ? 		O 		-0.584063
O 1.0  		0.7220318944308038 		0.5694308145240433  0.5518900120258718 		Uiso   ? 		O 		-0.584063
O 1.0  		0.3792774888674888 		0.126594700686948  0.5190626320408229 		Uiso   ? 		O 		-0.554707
O 1.0  		0.35212084921135045 		0.6256133464180569  0.5176000260018851 		Uiso   ? 		O 		-0.554707
O 1.0  		0.8790716995446065 		0.12193326790971541  0.5187376084766145 		Uiso   ? 		O 		-0.554707
O 1.0  		0.8448216243686153 		0.6229146221786066  0.5182500731303019 		Uiso   ? 		O 		-0.554707
O 1.0  		0.28075891883370224 		0.42934249263984303  0.3651639743881431 		Uiso   ? 		O 		-0.607707
O 1.0  		0.25060322111917743 		0.9295878312070659  0.3650014626060389 		Uiso   ? 		O 		-0.607707
O 1.0  		0.7836681525307302 		0.42836113837095197  0.3651639743881431 		Uiso   ? 		O 		-0.607707
O 1.0  		0.7498430667300047 		0.929342492639843  0.3651639743881431 		Uiso   ? 		O 		-0.607707
O 1.0  		0.27883843397045577 		0.4038272816486752  0.5515649884616635 		Uiso   ? 		O 		-0.600313
O 1.0  		0.24991614488342379 		0.9018645731108932  0.5515649884616635 		Uiso   ? 		O 		-0.600313
O 1.0  		0.7818857568918969 		0.4001472031403337  0.5501023824227256 		Uiso   ? 		O 		-0.600313
O 1.0  		0.7461723513340035 		0.899901864573111  0.5502648942048298 		Uiso   ? 		O 		-0.600313
O 1.0  		0.28111151091438596 		0.4330225711481845  0.5840673448825039 		Uiso   ? 		O 		-0.607512
O 1.0  		0.2520752650344681 		0.932531894013739  0.5832547859719829 		Uiso   ? 		O 		-0.607512
O 1.0  		0.7801368536689427 		0.42639842983316983  0.5819546917151494 		Uiso   ? 		O 		-0.607512
O 1.0  		0.7503665940000173 		0.9308145240431797  0.5822797152793577 		Uiso   ? 		O 		-0.607512
O 1.0  		0.45923777905307017 		0.24656526005888124  0.3643514154776221 		Uiso   ? 		O 		-0.607703
O 1.0  		0.4256734528030319 		0.7450932286555447  0.3627262976565801 		Uiso   ? 		O 		-0.607703
O 1.0  		0.9596145035652812 		0.24901864573110893  0.3635388565671011 		Uiso   ? 		O 		-0.607703
O 1.0  		0.9245714280352018 		0.7492639842983317  0.3650014626060389 		Uiso   ? 		O 		-0.607703
O 1.0  		0.4313372912119787 		0.25196270853778213  0.5523775473721845 		Uiso   ? 		O 		-0.600313
O 1.0  		0.3942329525667646 		0.7468105986261041  0.5514024766795592 		Uiso   ? 		O 		-0.600313
O 1.0  		0.9283275114515659 		0.24509322865554467  0.5530275945006012 		Uiso   ? 		O 		-0.600313
O 1.0  		0.8983031975967035 		0.7473012757605496  0.5518900120258718 		Uiso   ? 		O 		-0.600313
O 1.0  		0.46032639309139933 		0.2517173699705594  0.5840673448825039 		Uiso   ? 		O 		-0.607507
O 1.0  		0.42360749249178464 		0.7507360157016684  0.5827672506256703 		Uiso   ? 		O 		-0.607507
O 1.0  		0.958722965316446 		0.24681059862610405  0.5847173920109208 		Uiso   ? 		O 		-0.607507
O 1.0  		0.9275376401286726 		0.7475466143277725  0.5832547859719829 		Uiso   ? 		O 		-0.607507
O 1.0  		0.27918163165891396 		0.4295878312070658  0.4150550914941333 		Uiso   ? 		O 		-0.607476
O 1.0  		0.2508726942032531 		0.9288518155053975  0.4174927682256963 		Uiso   ? 		O 		-0.607476
O 1.0  		0.7810196783843896 		0.42688910696761534  0.4153801150583417 		Uiso   ? 		O 		-0.607476
O 1.0  		0.747864922611478 		0.9283611383709519  0.4174927682256963 		Uiso   ? 		O 		-0.607476
O 1.0  		0.27775853346551505 		0.40039254170755645  0.4472324243507654 		Uiso   ? 		O 		-0.600430
O 1.0  		0.2500213881429213 		0.8986751717369971  0.44853251860759896 		Uiso   ? 		O 		-0.600430
O 1.0  		0.7790335015913119 		0.40039254170755645  0.44804498326128644 		Uiso   ? 		O 		-0.600430
O 1.0  		0.7454034834114424 		0.8979391560353289  0.4488575421718074 		Uiso   ? 		O 		-0.600430
O 1.0  		0.28084203783031025 		0.43375858684985286  0.6349335326811193 		Uiso   ? 		O 		-0.607783
O 1.0  		0.2509470996664728 		0.931550539744848  0.6354210680274319 		Uiso   ? 		O 		-0.607783
O 1.0  		0.7818213922718663 		0.42934249263984303  0.6342834855527025 		Uiso   ? 		O 		-0.607783
O 1.0  		0.748690768930482 		0.9295878312070659  0.6336334384242858 		Uiso   ? 		O 		-0.607783
O 1.0  		0.28063692936626516 		0.4052993130520118  0.6664608184093346 		Uiso   ? 		O 		-0.599429
O 1.0  		0.25010450713952936 		0.903091265947007  0.667598400884064 		Uiso   ? 		O 		-0.599429
O 1.0  		0.7828999654670065 		0.4026005888125614  0.6658107712809179 		Uiso   ? 		O 		-0.599429
O 1.0  		0.7483388577086356 		0.9021099116781159  0.6661357948451263 		Uiso   ? 		O 		-0.599429
O 1.0  		0.45964734953019687 		0.24950932286555447  0.4153801150583417 		Uiso   ? 		O 		-0.607472
O 1.0  		0.4262298260379602 		0.7470559371933269  0.4153801150583417 		Uiso   ? 		O 		-0.607472
O 1.0  		0.9591566682250998 		0.2485279685966634  0.4150550914941333 		Uiso   ? 		O 		-0.607472
O 1.0  		0.9254126932523445 		0.7475466143277725  0.41586765040465434 		Uiso   ? 		O 		-0.607472
O 1.0  		0.4295542147143082 		0.24754661432777234  0.447719959697078 		Uiso   ? 		O 		-0.600434
O 1.0  		0.3967500428534426 		0.7463199214916585  0.447719959697078 		Uiso   ? 		O 		-0.600434
O 1.0  		0.9286713899988613 		0.24705593719332677  0.4459323300939318 		Uiso   ? 		O 		-0.600434
O 1.0  		0.8976985594987208 		0.7477919528949952  0.44804498326128644 		Uiso   ? 		O 		-0.600434
O 1.0  		0.4600482064739352 		0.2507360157016683  0.6355835798095362 		Uiso   ? 		O 		-0.607771
O 1.0  		0.42426039545282196 		0.7477919528949952  0.6359086033737446 		Uiso   ? 		O 		-0.607771
O 1.0  		0.9569157563872481 		0.24362119725220807  0.6376962329768908 		Uiso   ? 		O 		-0.607771
O 1.0  		0.9264751666905087 		0.7475466143277725  0.6357460915916403 		Uiso   ? 		O 		-0.607771
O 1.0  		0.43148409396978016 		0.25098135426889107  0.6677609126661682 		Uiso   ? 		O 		-0.599469
O 1.0  		0.39566343698375134 		0.7475466143277725  0.6680859362303766 		Uiso   ? 		O 		-0.599469
O 1.0  		0.9298303931631345 		0.24214916584887147  0.6698735658335229 		Uiso   ? 		O 		-0.599469
O 1.0  		0.8967654617515814 		0.7433758586849853  0.6684109597945851 		Uiso   ? 		O 		-0.599469
O 1.0  		0.3680225878307899 		0.25368007850834157  0.5525400591542886 		Uiso   ? 		O 		-0.584062
O 1.0  		0.3299127541438547 		0.7477919528949952  0.5517275002437676 		Uiso   ? 		O 		-0.584062
O 1.0  		0.8634509397937278 		0.2441118743866536  0.5522150355900802 		Uiso   ? 		O 		-0.584062
O 1.0  		0.8330103500969883 		0.7480372914622179  0.5525400591542886 		Uiso   ? 		O 		-0.584062
O 1.0  		0.24864958791879066 		0.07188420019627086  0.4467448890044528 		Uiso   ? 		O 		-0.584205
O 1.0  		0.2182968144147719 		0.5691854759568205  0.447719959697078 		Uiso   ? 		O 		-0.584205
O 1.0  		0.7512390755000505 		0.06771344455348383  0.44820749504339064 		Uiso   ? 		O 		-0.584205
O 1.0  		0.7181325845901936 		0.5667320902845928  0.4467448890044528 		Uiso   ? 		O 		-0.584205
O 1.0  		0.2485926095223478 		0.07262021589793916  0.666785841973543 		Uiso   ? 		O 		-0.582763
O 1.0  		0.21861455236190225 		0.5659960745829244  0.6646731888061884 		Uiso   ? 		O 		-0.582763
O 1.0  		0.74867171218168 		0.06427870461236507  0.6649982123703968 		Uiso   ? 		O 		-0.582763
O 1.0  		0.718491882035628 		0.5657507360157017  0.6658107712809179 		Uiso   ? 		O 		-0.582763
O 1.0  		0.367433368630946 		0.2512266928361139  0.446094841876036 		Uiso   ? 		O 		-0.584205
O 1.0  		0.33215165781306866 		0.7463199214916585  0.4472324243507654 		Uiso   ? 		O 		-0.584205
O 1.0  		0.8616940038962224 		0.24484789008832192  0.4470699125686612 		Uiso   ? 		O 		-0.584205
O 1.0  		0.8316368440764444 		0.7465652600588814  0.4470699125686612 		Uiso   ? 		O 		-0.584205
O 1.0  		0.3638276643059388 		0.24656526005888124  0.6669483537556472 		Uiso   ? 		O 		-0.582782
O 1.0  		0.32938922687384214 		0.7463199214916585  0.6690610069230019 		Uiso   ? 		O 		-0.582782
O 1.0  		0.8667368980029668 		0.24558390578999018  0.6680859362303766 		Uiso   ? 		O 		-0.582782
O 1.0  		0.8312929655291491 		0.7446025515210992  0.6679234244482725 		Uiso   ? 		O 		-0.582782
O 1.0  		0.10191221967488097 		0.22252208047105007  0.4478824714791822 		Uiso   ? 		O 		-0.584203
O 1.0  		0.06963157508402806 		0.7227674190382729  0.4491825657360158 		Uiso   ? 		O 		-0.584203
O 1.0  		0.6023130766186192 		0.22374877330716392  0.44641986544024437 		Uiso   ? 		O 		-0.584203
O 1.0  		0.5670970577305732 		0.7198233562315998  0.4475574479149738 		Uiso   ? 		O 		-0.584203
O 1.0  		0.10370400970593982 		0.22865554465161927  0.6671108655377516 		Uiso   ? 		O 		-0.582776
O 1.0  		0.06916703437909616 		0.7269381746810599  0.6684109597945851 		Uiso   ? 		O 		-0.582776
O 1.0  		0.6023613414816739 		0.22129538763493622  0.6679234244482725 		Uiso   ? 		O 		-0.582776
O 1.0  		0.5695504642560577 		0.724730127576055  0.6672733773198556 		Uiso   ? 		O 		-0.582776
O 1.0  		0.27802334376135185 		0.33292443572129543  0.4459323300939318 		Uiso   ? 		O 		-0.584204
O 1.0  		0.2480801407344598 		0.8331697742885182  0.4478824714791822 		Uiso   ? 		O 		-0.584204
O 1.0  		0.7814406858302535 		0.3363591756624142  0.446094841876036 		Uiso   ? 		O 		-0.584204
O 1.0  		0.7469519753664644 		0.8321884200196271  0.4475574479149738 		Uiso   ? 		O 		-0.584204
O 1.0  		0.28206275099501305 		0.3393032384690874  0.6671108655377516 		Uiso   ? 		O 		-0.582721
O 1.0  		0.24889928168871317 		0.8390578999018646  0.6674358891019598 		Uiso   ? 		O 		-0.582721
O 1.0  		0.7833290055874214 		0.33758586849852795  0.6662983066272303 		Uiso   ? 		O 		-0.582721
O 1.0  		0.750524833726556 		0.8363591756624141  0.6664608184093346 		Uiso   ? 		O 		-0.582721
O 1.0  		0.37545656641949987 		0.21712463199214918  0.5177625377839893 		Uiso   ? 		O 		-0.554705
O 1.0  		0.3405080124468918 		0.7060843964671247  0.5169499788734683 		Uiso   ? 		O 		-0.554705
O 1.0  		0.883415399588023 		0.21221786064769382  0.5180875613481978 		Uiso   ? 		O 		-0.554705
O 1.0  		0.8434588056422239 		0.7073110893032385  0.5185750966945103 		Uiso   ? 		O 		-0.554705
O 1.0  		0.10429993427053424 		0.22644749754661436  0.5505899177690382 		Uiso   ? 		O 		-0.584063
O 1.0  		0.07033475107675774 		0.723748773307164  0.5522150355900802 		Uiso   ? 		O 		-0.584063
O 1.0  		0.602540990204391 		0.2208047105004907  0.5533526180648096 		Uiso   ? 		O 		-0.584063
O 1.0  		0.568036860842463 		0.7195780176643769  0.5530275945006012 		Uiso   ? 		O 		-0.584063
O 1.0  		0.3399317295649551 		0.2514720314033366  0.36256378587447585 		Uiso   ? 		O 		-0.610673
O 1.0  		0.30725022803036384 		0.7504906771344456  0.36321383300289267 		Uiso   ? 		O 		-0.610673
O 1.0  		0.8360149926575682 		0.24533856722276745  0.3654889979523515 		Uiso   ? 		O 		-0.610673
O 1.0  		0.8022797312182011 		0.7460745829244357  0.3645139272597263 		Uiso   ? 		O 		-0.610673
O 1.0  		0.28220955375281453 		0.3383218842001963  0.5527025709363929 		Uiso   ? 		O 		-0.584063
O 1.0  		0.24867807346769194 		0.8373405299313053  0.5518900120258718 		Uiso   ? 		O 		-0.584063
O 1.0  		0.7824046213736706 		0.33488714425907756  0.5502648942048298 		Uiso   ? 		O 		-0.584063
O 1.0  		0.7458982154616887 		0.8339057899901865  0.5510774531153508 		Uiso   ? 		O 		-0.584063
O 1.0  		0.27380371016975796 		0.1175171736997056  0.41066727337731984 		Uiso   ? 		O 		-1.138054
O 1.0  		0.24250242002046102 		0.6133464180569186  0.41131732050573666 		Uiso   ? 		O 		-1.138054
O 1.0  		0.7742836697728286 		0.11040235525024535  0.4119673676341535 		Uiso   ? 		O 		-1.138054
O 1.0  		0.7421015630767227 		0.6121197252208048  0.41180485585204923 		Uiso   ? 		O 		-1.138054
O 1.0  		0.2734926775873782 		0.11604514229636899  0.6313582734748269 		Uiso   ? 		O 		-1.138123
O 1.0  		0.24195476031892119 		0.6131010794896958  0.6310332499106185 		Uiso   ? 		O 		-1.138123
O 1.0  		0.7725508663068505 		0.10991167811579981  0.6303832027822016 		Uiso   ? 		O 		-1.138123
O 1.0  		0.7409733977087274 		0.6111383709519137  0.6313582734748269 		Uiso   ? 		O 		-1.138123
O 1.0  		0.38361319064422794 		0.11359175662414134  0.4126174147625703 		Uiso   ? 		O 		-1.138053
O 1.0  		0.3519854490144124 		0.610893032384691  0.41164234406994504 		Uiso   ? 		O 		-1.138053
O 1.0  		0.8835387851810083 		0.11089303238469089  0.4119673676341535 		Uiso   ? 		O 		-1.138053
O 1.0  		0.8551902963956812 		0.6143277723258097  0.41180485585204923 		Uiso   ? 		O 		-1.138053
O 1.0  		0.38385853129677644 		0.11408243375858687  0.6303832027822016 		Uiso   ? 		O 		-1.138117
O 1.0  		0.3509973810394679 		0.6135917566241413  0.6308707381285142 		Uiso   ? 		O 		-1.138117
O 1.0  		0.884969269597995 		0.11162904808635919  0.6305457145643059 		Uiso   ? 		O 		-1.138117
O 1.0  		0.8538737687715803 		0.6121197252208048  0.6313582734748269 		Uiso   ? 		O 		-1.138117
O 1.0  		0.33783962865354267 		0.25196270853778213  0.5840673448825039 		Uiso   ? 		O 		-0.610686
O 1.0  		0.3016596742220795 		0.7495093228655546  0.5829297624077745 		Uiso   ? 		O 		-0.610686
O 1.0  		0.835401641026197 		0.2441118743866536  0.5840673448825039 		Uiso   ? 		O 		-0.610686
O 1.0  		0.8063345573500014 		0.7495093228655546  0.5843923684467124 		Uiso   ? 		O 		-0.610686
O 1.0  		0.3875553528850688 		0.22644749754661436  0.4111548087236324 		Uiso   ? 		O 		-1.138055
O 1.0  		0.354015159066558 		0.723748773307164  0.4105047615952156 		Uiso   ? 		O 		-1.138055
O 1.0  		0.884701089415846 		0.22031403336604516  0.41147983228784085 		Uiso   ? 		O 		-1.138055
O 1.0  		0.8516448715376814 		0.7232580961727184  0.41180485585204923 		Uiso   ? 		O 		-1.138055
O 1.0  		0.3869507147870861 		0.2269381746810599  0.6310332499106185 		Uiso   ? 		O 		-1.138120
O 1.0  		0.3508277387520659 		0.723748773307164  0.6316832970390353 		Uiso   ? 		O 		-1.138120
O 1.0  		0.8849705624999218 		0.21957801766437687  0.6320083206032436 		Uiso   ? 		O 		-1.138120
O 1.0  		0.8547096215258994 		0.7230127576054957  0.6313582734748269 		Uiso   ? 		O 		-1.138120
O 1.0  		0.2767786357966173 		0.1175171736997056  0.3680891864660188 		Uiso   ? 		O 		-1.138045
O 1.0  		0.24045858397210318 		0.6113837095191365  0.3680891864660188 		Uiso   ? 		O 		-1.138045
O 1.0  		0.7734008450573817 		0.10991167811579981  0.36906425715864394 		Uiso   ? 		O 		-1.138045
O 1.0  		0.7446930588266204 		0.6143277723258097  0.3680891864660188 		Uiso   ? 		O 		-1.138045
O 1.0  		0.2744653266641837 		0.11629048086359176  0.5869925569603796 		Uiso   ? 		O 		-1.137992
O 1.0  		0.24152977094365558 		0.6131010794896958  0.5876426040887964 		Uiso   ? 		O 		-1.137992
O 1.0  		0.7733438666609388 		0.11064769381746811  0.5866675333961712 		Uiso   ? 		O 		-1.137992
O 1.0  		0.7449055535142532 		0.6143277723258097  0.5881301394351091 		Uiso   ? 		O 		-1.137992
O 1.0  		0.3835803446793123 		0.11310107948969579  0.36922676894074813 		Uiso   ? 		O 		-1.138044
O 1.0  		0.3518627786881381 		0.6106476938174681  0.36906425715864394 		Uiso   ? 		O 		-1.138044
O 1.0  		0.8833417093915144 		0.10794896957801768  0.3680891864660188 		Uiso   ? 		O 		-1.138044
O 1.0  		0.8552801207570397 		0.614082433758587  0.3689017453765398 		Uiso   ? 		O 		-1.138044
O 1.0  		0.28751062160639307 		0.12070657507360158  0.48087236324633537 		Uiso   ? 		O 		-0.554633
O 1.0  		0.25792671602493533 		0.6199705593719333  0.48152241037475213 		Uiso   ? 		O 		-0.554633
O 1.0  		0.7925206697482218 		0.12095191364082435  0.4810348750284395 		Uiso   ? 		O 		-0.554633
O 1.0  		0.7553854933067299 		0.6216879293424926  0.48087236324633537 		Uiso   ? 		O 		-0.554633
O 1.0  		0.3834992338513421 		0.11506378802747792  0.5868300451782754 		Uiso   ? 		O 		-1.137993
O 1.0  		0.3514310839481219 		0.6153091265947007  0.5882926512172132 		Uiso   ? 		O 		-1.137993
O 1.0  		0.8864567324114246 		0.11162904808635919  0.5871550687424838 		Uiso   ? 		O 		-1.137993
O 1.0  		0.853849636340053 		0.6133464180569186  0.5874800923066922 		Uiso   ? 		O 		-1.137993
O 1.0  		0.3875794853165962 		0.22522080471050052  0.36792667468391455 		Uiso   ? 		O 		-1.138046
O 1.0  		0.35260880708109854 		0.7217860647693819  0.3672766275554977 		Uiso   ? 		O 		-1.138046
O 1.0  		0.8850121219982257 		0.22178606476938179  0.3687392335944356 		Uiso   ? 		O 		-1.138046
O 1.0  		0.8533776750036596 		0.723748773307164  0.3689017453765398 		Uiso   ? 		O 		-1.138046
O 1.0  		0.38572401152434377 		0.22448478900883223  0.5884551629993174 		Uiso   ? 		O 		-1.137993
O 1.0  		0.3510161010081714 		0.7249754661432778  0.5878051158709006 		Uiso   ? 		O 		-1.137993
O 1.0  		0.883818264700399 		0.21982335623159963  0.5887801865635258 		Uiso   ? 		O 		-1.137993
O 1.0  		0.8538026643789252 		0.723748773307164  0.5878051158709006 		Uiso   ? 		O 		-1.137993
O 1.0  		0.1435276516271587 		0.24582924435721298  0.36678909220918515 		Uiso   ? 		O 		-1.138044
O 1.0  		0.11157345851682443 		0.7446025515210992  0.36678909220918515 		Uiso   ? 		O 		-1.138044
O 1.0  		0.6473525560045492 		0.24582924435721298  0.36711411577339353 		Uiso   ? 		O 		-1.138044
O 1.0  		0.6123336129059971 		0.744847890088322  0.36776416290181035 		Uiso   ? 		O 		-1.138044
O 1.0  		0.14678076387148212 		0.24681059862610405  0.5866675333961712 		Uiso   ? 		O 		-1.137992
O 1.0  		0.11526898720319012 		0.749018645731109  0.5874800923066922 		Uiso   ? 		O 		-1.137992
O 1.0  		0.6476790074850678 		0.24435721295387638  0.5874800923066922 		Uiso   ? 		O 		-1.137992
O 1.0  		0.6140992623368908 		0.745829244357213  0.5881301394351091 		Uiso   ? 		O 		-1.137992
O 1.0  		0.2912785475873407 		0.12144259077526988  0.7014008515617381 		Uiso   ? 		O 		-0.555401
O 1.0  		0.25388730879127414 		0.6135917566241413  0.7007508044333214 		Uiso   ? 		O 		-0.555401
O 1.0  		0.7869522402028271 		0.11236506378802749  0.6999382455228004 		Uiso   ? 		O 		-0.555401
O 1.0  		0.7588993651017407 		0.6202158979391561  0.6997757337406961 		Uiso   ? 		O 		-0.555401
O 1.0  		0.37260703455426364 		0.12217860647693819  0.48200994572106476 		Uiso   ? 		O 		-0.554635
O 1.0  		0.3459497897366107 		0.6238959764474976  0.4805473396821269 		Uiso   ? 		O 		-0.554635
O 1.0  		0.8790716995446065 		0.12193326790971541  0.48200994572106476 		Uiso   ? 		O 		-0.554635
O 1.0  		0.8448457568001425 		0.6216879293424926  0.4816849221568563 		Uiso   ? 		O 		-0.554635
O 1.0  		0.37773774485372896 		0.11629048086359176  0.6994507101764877 		Uiso   ? 		O 		-0.555379
O 1.0  		0.33959707337051587 		0.6162904808635918  0.7010758279975298 		Uiso   ? 		O 		-0.555379
O 1.0  		0.8731265454870006 		0.11089303238469089  0.6997757337406961 		Uiso   ? 		O 		-0.555379
O 1.0  		0.8487343449387266 		0.6162904808635918  0.7009133162154255 		Uiso   ? 		O 		-0.555379
O 1.0  		0.3736406439569137 		0.21221786064769382  0.4810348750284395 		Uiso   ? 		O 		-0.554633
O 1.0  		0.3414323966606426 		0.7087831207065751  0.4792472454252933 		Uiso   ? 		O 		-0.554633
O 1.0  		0.883023256177673 		0.21270853778213936  0.4811973868105437 		Uiso   ? 		O 		-0.554633
O 1.0  		0.8426986512530511 		0.7070657507360157  0.4818474339389605 		Uiso   ? 		O 		-0.554633
O 1.0  		0.14512365877065037 		0.35696761530912663  0.3693892807228524 		Uiso   ? 		O 		-1.138044
O 1.0  		0.11633275354328088 		0.8569676153091267  0.3685767218123313 		Uiso   ? 		O 		-1.138044
O 1.0  		0.6495532012460237 		0.3564769381746811  0.36695160399128934 		Uiso   ? 		O 		-1.138044
O 1.0  		0.6136755658635518 		0.8537782139352307  0.3702018396333734 		Uiso   ? 		O 		-1.138044
O 1.0  		0.3775292320954978 		0.20682041216879293  0.6997757337406961 		Uiso   ? 		O 		-0.555353
O 1.0  		0.34233064027422844 		0.7063297350343475  0.7005882926512171 		Uiso   ? 		O 		-0.555353
O 1.0  		0.8738665493740475 		0.20289499509322867  0.7007508044333214 		Uiso   ? 		O 		-0.555353
O 1.0  		0.8469968098687619 		0.7046123650637881  0.7005882926512171 		Uiso   ? 		O 		-0.555353
O 1.0  		0.15515519202304526 		0.2639842983316978  0.4797347807716059 		Uiso   ? 		O 		-0.554635
O 1.0  		0.12579920002735928 		0.7603042198233564  0.48135989859264794 		Uiso   ? 		O 		-0.554635
O 1.0  		0.6521956852943249 		0.2610402355250246  0.4805473396821269 		Uiso   ? 		O 		-0.554635
O 1.0  		0.622375152593707 		0.7615309126594701  0.48152241037475213 		Uiso   ? 		O 		-0.554635
O 1.0  		0.15100383616513602 		0.2654563297350344  0.6997757337406961 		Uiso   ? 		O 		-0.555366
O 1.0  		0.11977695147905876 		0.7639842983316978  0.7018883869080508 		Uiso   ? 		O 		-0.555366
O 1.0  		0.6590042288319631 		0.2627576054955839  0.7005882926512171 		Uiso   ? 		O 		-0.555366
O 1.0  		0.6219347443203024 		0.7644749754661434  0.7005882926512171 		Uiso   ? 		O 		-0.555366
O 1.0  		0.1537595273317381 		0.3478900883218842  0.4790847336431891 		Uiso   ? 		O 		-0.554633
O 1.0  		0.12379219187331875 		0.8493621197252209  0.48233496928527314 		Uiso   ? 		O 		-0.554633
O 1.0  		0.6559742985694248 		0.3476447497546615  0.4795722689895017 		Uiso   ? 		O 		-0.554633
O 1.0  		0.6199498604291513 		0.8459273797841022  0.48152241037475213 		Uiso   ? 		O 		-0.554633
O 1.0  		0.15487428197023229 		0.35819430814524045  0.6986381512659668 		Uiso   ? 		O 		-0.555345
O 1.0  		0.1182364921985879 		0.8552502453385673  0.7023759222543634 		Uiso   ? 		O 		-0.555345
O 1.0  		0.6586643322140694 		0.351324828263003  0.7014008515617381 		Uiso   ? 		O 		-0.555345
O 1.0  		0.6236541026489055 		0.8520608439646713  0.7014008515617381 		Uiso   ? 		O 		-0.555345
O 1.0  		0.14677535140865827 		0.3594210009813543  0.5863425098319628 		Uiso   ? 		O 		-1.137992
O 1.0  		0.11428221213017248 		0.8596663395485771  0.5886176747814216 		Uiso   ? 		O 		-1.137992
O 1.0  		0.6470515298574846 		0.35402355250245343  0.5868300451782754 		Uiso   ? 		O 		-1.137992
O 1.0  		0.6113468378329794 		0.8554955839057901  0.5876426040887964 		Uiso   ? 		O 		-1.137992
O 1.0  		0.2411518223452656 		0.3471540726202159  0.4805473396821269 		Uiso   ? 		O 		-0.554634
O 1.0  		0.2080781774003243 		0.8466633954857704  0.48087236324633537 		Uiso   ? 		O 		-0.554634
O 1.0  		0.7414058765312023 		0.3493621197252208  0.4807098514642312 		Uiso   ? 		O 		-0.554634
O 1.0  		0.7062796820045147 		0.8451913640824338  0.4798972925537101 		Uiso   ? 		O 		-0.554634
O 1.0  		0.24585485424199027 		0.358684985279686  0.7004257808691129 		Uiso   ? 		O 		-0.555494
O 1.0  		0.21012402161732002 		0.8550049067713446  0.7009133162154255 		Uiso   ? 		O 		-0.555494
O 1.0  		0.7491716502475072 		0.3542688910696762  0.7009133162154255 		Uiso   ? 		O 		-0.555494
O 1.0  		0.7121175846339854 		0.8530421982335623  0.701238339779634 		Uiso   ? 		O 		-0.555494
O 1.0  		0.15876760171280302 		0.2639842983316978  0.5176000260018851 		Uiso   ? 		O 		-0.554706
O 1.0  		0.12280885550236104 		0.7632482826300295  0.5184125849124062 		Uiso   ? 		O 		-0.554706
O 1.0  		0.6523666204836536 		0.25883218842001965  0.5184125849124062 		Uiso   ? 		O 		-0.554706
O 1.0  		0.617479061244764 		0.7598135426889108  0.5180875613481978 		Uiso   ? 		O 		-0.554706
O 1.0  		0.33922855357222537 		0.25049067713444556  0.4139175090194039 		Uiso   ? 		O 		-0.610635
O 1.0  		0.307037733342731 		0.7504906771344456  0.4147300679299249 		Uiso   ? 		O 		-0.610635
O 1.0  		0.8351408814755096 		0.24656526005888124  0.41586765040465434 		Uiso   ? 		O 		-0.610635
O 1.0  		0.8026236097654965 		0.7480372914622179  0.4161926739688627 		Uiso   ? 		O 		-0.610635
O 1.0  		0.15147906416422013 		0.3471540726202159  0.5161374199629473 		Uiso   ? 		O 		-0.554705
O 1.0  		0.12187973968462346 		0.8493621197252209  0.5193876556050313 		Uiso   ? 		O 		-0.554705
O 1.0  		0.6556304200221292 		0.34568204121687934  0.5162999317450515 		Uiso   ? 		O 		-0.554705
O 1.0  		0.6200725307554256 		0.8461727183513249  0.5189001202587187 		Uiso   ? 		O 		-0.554705
O 1.0  		0.24125036024001253 		0.34862610402355254  0.5176000260018851 		Uiso   ? 		O 		-0.554705
O 1.0  		0.20735958250945571 		0.8486261040235527  0.5187376084766145 		Uiso   ? 		O 		-0.554705
O 1.0  		0.742713690621915 		0.34985279685966636  0.5167874670913641 		Uiso   ? 		O 		-0.554705
O 1.0  		0.7061657252116289 		0.8466633954857704  0.5174375142197809 		Uiso   ? 		O 		-0.554705
O 1.0  		0.3373161013835301 		0.25049067713444556  0.6357460915916403 		Uiso   ? 		O 		-0.610708
O 1.0  		0.30053150885408414 		0.7485279685966635  0.6368836740663698 		Uiso   ? 		O 		-0.610708
O 1.0  		0.8366524767204666 		0.24533856722276745  0.6367211622842656 		Uiso   ? 		O 		-0.610708
O 1.0  		0.8049938972943731 		0.7485279685966635  0.6355835798095362 		Uiso   ? 		O 		-0.610708
O 1.0  		0.3245135268821419 		0.10843964671246321  0.447719959697078 		Uiso   ? 		O 		-0.981924
O 1.0  		0.2948967753357685 		0.6072129538763494  0.4462573536581402 		Uiso   ? 		O 		-0.981924
O 1.0  		0.8252234082396221 		0.10475956820412169  0.44820749504339064 		Uiso   ? 		O 		-0.981924
O 1.0  		0.794038083051849 		0.6054955839057901  0.4483700068254948 		Uiso   ? 		O 		-0.981924
O 1.0  		0.32645882503575285 		0.10893032384690875  0.665973283063022 		Uiso   ? 		O 		-0.981937
O 1.0  		0.2923381255507865 		0.6054955839057901  0.6654857477167094 		Uiso   ? 		O 		-0.981937
O 1.0  		0.8243231564573985 		0.10083415112855741  0.6654857477167094 		Uiso   ? 		O 		-0.981937
O 1.0  		0.7954598539354474 		0.6045142296368989  0.6672733773198556 		Uiso   ? 		O 		-0.981937
O 1.0  		0.3908647970748719 		0.17271835132482827  0.44820749504339064 		Uiso   ? 		O 		-0.981927
O 1.0  		0.35842863619282905 		0.6722276741903829  0.4472324243507654 		Uiso   ? 		O 		-0.981927
O 1.0  		0.8934958441544357 		0.17075564278704614  0.4475574479149738 		Uiso   ? 		O 		-0.981927
O 1.0  		0.8580606252140064 		0.6714916584887145  0.44804498326128644 		Uiso   ? 		O 		-0.981927
O 1.0  		0.3931452602423898 		0.17345436702649658  0.6666233301914389 		Uiso   ? 		O 		-0.981941
O 1.0  		0.3565074704707454 		0.6705103042198235  0.667598400884064 		Uiso   ? 		O 		-0.981941
O 1.0  		0.8901026345170614 		0.16609421000981356  0.6692235187051061 		Uiso   ? 		O 		-0.981941
O 1.0  		0.8596948907852374 		0.6705103042198235  0.6671108655377516 		Uiso   ? 		O 		-0.981941
O 1.0  		0.32779543434623154 		0.17492639842983318  0.44528228296551503 		Uiso   ? 		O 		-0.981926
O 1.0  		0.29355206453499094 		0.6712463199214918  0.4465823772223486 		Uiso   ? 		O 		-0.981926
O 1.0  		0.8263146768975524 		0.1702649656526006  0.44804498326128644 		Uiso   ? 		O 		-0.981926
O 1.0  		0.7932168995210839 		0.6710009813542689  0.4472324243507654 		Uiso   ? 		O 		-0.981926
O 1.0  		0.3276968964514846 		0.17345436702649658  0.6671108655377516 		Uiso   ? 		O 		-0.981940
O 1.0  		0.29221140447936284 		0.6702649656526007  0.667598400884064 		Uiso   ? 		O 		-0.981940
O 1.0  		0.8257254576977086 		0.16781157998037294  0.6679234244482725 		Uiso   ? 		O 		-0.981940
O 1.0  		0.7935433510016026 		0.6695289499509324  0.666785841973543 		Uiso   ? 		O 		-0.981940
O 1.0  		0.2566505238129595 		0.3564769381746811  0.36743913933760197 		Uiso   ? 		O 		-1.138044
O 1.0  		0.2244838360149925 		0.8552502453385673  0.3685767218123313 		Uiso   ? 		O 		-1.138044
O 1.0  		0.7581379866263891 		0.3564769381746811  0.36776416290181035 		Uiso   ? 		O 		-1.138044
O 1.0  		0.7251870120077221 		0.8562315996074584  0.36906425715864394 		Uiso   ? 		O 		-1.138044
O 1.0  		0.3279704202807098 		0.1077036310107949  0.3341242240062404 		Uiso   ? 		O 		-0.981994
O 1.0  		0.2928113797891067 		0.6030421982335624  0.3341242240062404 		Uiso   ? 		O 		-0.981994
O 1.0  		0.8243318699907869 		0.10255152109911679  0.33331166509571947 		Uiso   ? 		O 		-0.981994
O 1.0  		0.797324041261088 		0.6069676153091267  0.3324991061851984 		Uiso   ? 		O 		-0.981994
O 1.0  		0.3258541869377701 		0.10942100098135428  0.552052523807976 		Uiso   ? 		O 		-0.981932
O 1.0  		0.2960819191002068 		0.6074582924435722  0.5515649884616635 		Uiso   ? 		O 		-0.981932
O 1.0  		0.8278631688525745 		0.10451422963689892  0.551239964897455 		Uiso   ? 		O 		-0.981932
O 1.0  		0.7959592487739325 		0.6072129538763494  0.552052523807976 		Uiso   ? 		O 		-0.981932
O 1.0  		0.39492632857142257 		0.17149165848871442  0.33331166509571947 		Uiso   ? 		O 		-0.981998
O 1.0  		0.3577978574946812 		0.6675662414131502  0.33201157083888583 		Uiso   ? 		O 		-0.981998
O 1.0  		0.8900215236890912 		0.16805691854759572  0.3316865472746774 		Uiso   ? 		O 		-0.981998
O 1.0  		0.861044264374254 		0.6732090284592739  0.3334741768778236 		Uiso   ? 		O 		-0.981998
O 1.0  		0.3920915003376142 		0.17517173699705593  0.5515649884616635 		Uiso   ? 		O 		-0.981936
O 1.0  		0.3596794718870986 		0.6734543670264966  0.5523775473721845 		Uiso   ? 		O 		-0.981936
O 1.0  		0.892891206056453 		0.17124631992149167  0.5515649884616635 		Uiso   ? 		O 		-0.981936
O 1.0  		0.8603082424166086 		0.6717369970559373  0.5527025709363929 		Uiso   ? 		O 		-0.981936
O 1.0  		0.24710381939911752 		0.04244357212953877  0.1460980921116781 		Uiso   ? 		O 		-0.567207
O 1.0  		0.21508393435895196 		0.5402355250245339  0.1417102739948646 		Uiso   ? 		O 		-0.567207
O 1.0  		0.7508717453800651 		0.04317958783120707  0.14366041538011504 		Uiso   ? 		O 		-0.567207
O 1.0  		0.7161966808288083 		0.5441609421000981  0.14382292716221926 		Uiso   ? 		O 		-0.567207
O 1.0  		0.32692132316417305 		0.17615309126594703  0.11440829460135858 		Uiso   ? 		O 		-0.917240
O 1.0  		0.29183668813578956 		0.674190382728165  0.11278317678031656 		Uiso   ? 		O 		-0.917240
O 1.0  		0.8286299941986237 		0.17787046123650638  0.11180810608769134 		Uiso   ? 		O 		-0.917240
O 1.0  		0.7957842628394542 		0.6744357212953878  0.11164559430558715 		Uiso   ? 		O 		-0.917240
O 1.0  		0.0715408982415282 		0.21957801766437687  0.20070205089869017 		Uiso   ? 		O 		-0.602438
O 1.0  		0.03980791335221506 		0.7200686947988224  0.1961517209997725 		Uiso   ? 		O 		-0.602438
O 1.0  		0.5780404173654246 		0.22620215897939158  0.19550167387135567 		Uiso   ? 		O 		-0.602438
O 1.0  		0.5400378351066246 		0.7235034347399412  0.19810186238502292 		Uiso   ? 		O 		-0.602438
O 1.0  		0.12937696203080684 		0.28680078508341517  0.11359573569083757 		Uiso   ? 		O 		-0.917242
O 1.0  		0.10866286310212192 		0.7931795878312071  0.11245815321610815 		Uiso   ? 		O 		-0.917242
O 1.0  		0.6471976861643227 		0.2990677134445535  0.11083303539506614 		Uiso   ? 		O 		-0.917242
O 1.0  		0.6028182551079008 		0.7899901864573112  0.11099554717717035 		Uiso   ? 		O 		-0.917242
O 1.0  		0.19546747267284942 		0.35353287536800787  0.11083303539506614 		Uiso   ? 		O 		-0.917153
O 1.0  		0.17472052777924885 		0.8594210009813543  0.11018298826664934 		Uiso   ? 		O 		-0.917153
O 1.0  		0.7133451752028083 		0.36506378802747796  0.11018298826664934 		Uiso   ? 		O 		-0.917153
O 1.0  		0.671024999092883 		0.8550049067713446  0.1083953586635031 		Uiso   ? 		O 		-0.917153
O 1.0  		0.19692614026651287 		0.288027477919529  0.11229564143400395 		Uiso   ? 		O 		-0.917237
O 1.0  		0.17380890784403577 		0.7934249263984299  0.11245815321610815 		Uiso   ? 		O 		-0.917237
O 1.0  		0.711820203636224 		0.29784102060843964  0.11180810608769134 		Uiso   ? 		O 		-0.917237
O 1.0  		0.6679797187479535 		0.7872914622178607  0.11164559430558715 		Uiso   ? 		O 		-0.917237
O 1.0  		0.1402751858337986 		0.2988223748773307  0.2299541716774466 		Uiso   ? 		O 		-0.981533
O 1.0  		0.10796169527802996 		0.798577036310108  0.22670393603536254 		Uiso   ? 		O 		-0.981533
O 1.0  		0.6438064846955862 		0.3007850834151129  0.22784151851009196 		Uiso   ? 		O 		-0.981533
O 1.0  		0.605624253714069 		0.798577036310108  0.22865407742061297 		Uiso   ? 		O 		-0.981533
O 1.0  		0.14506337930364294 		0.2433758586849853  0.19501413852504304 		Uiso   ? 		O 		-1.135164
O 1.0  		0.11537423046268774 		0.745829244357213  0.19338902070400102 		Uiso   ? 		O 		-1.135164
O 1.0  		0.6510963495539696 		0.24779195289499512  0.19257646179348004 		Uiso   ? 		O 		-1.135164
O 1.0  		0.6095953143982977 		0.7436211972522081  0.19290148535768842 		Uiso   ? 		O 		-1.135164
O 1.0  		0.20557269612175288 		0.3648184494602552  0.22686644781746673 		Uiso   ? 		O 		-0.981532
O 1.0  		0.17358565704650292 		0.8631010794896958  0.22702895959957095 		Uiso   ? 		O 		-0.981532
O 1.0  		0.7101007764918732 		0.3657998037291463  0.22686644781746673 		Uiso   ? 		O 		-0.981532
O 1.0  		0.6729723054151318 		0.861874386653582  0.22507881821432052 		Uiso   ? 		O 		-0.981532
O 1.0  		0.2047509005478984 		0.298577036310108  0.22914161276692557 		Uiso   ? 		O 		-0.981533
O 1.0  		0.1733530806724923 		0.7993130520117764  0.22897910098482138 		Uiso   ? 		O 		-0.981533
O 1.0  		0.7090993321953014 		0.3000490677134446  0.22800403029219618 		Uiso   ? 		O 		-0.981533
O 1.0  		0.6707287389576788 		0.7966143277723259  0.22914161276692557 		Uiso   ? 		O 		-0.981533
O 1.0  		0.2741367293835317 		0.4224730127576055  0.1407352033022394 		Uiso   ? 		O 		-0.566858
O 1.0  		0.2517468053853116 		0.9276251226692838  0.14528553320115709 		Uiso   ? 		O 		-0.566858
O 1.0  		0.7867503295857248 		0.4315505397448479  0.14479799785484446 		Uiso   ? 		O 		-0.566858
O 1.0  		0.7494073556527129 		0.9212463199214918  0.1405726915201352 		Uiso   ? 		O 		-0.566858
O 1.0  		0.06535438546077559 		0.298577036310108  0.14902330418955373 		Uiso   ? 		O 		-0.566841
O 1.0  		0.04168949333675853 		0.803729146221786  0.14431046250853186 		Uiso   ? 		O 		-0.566841
O 1.0  		0.5790304591011327 		0.30765456329735036  0.14414795072642766 		Uiso   ? 		O 		-0.566841
O 1.0  		0.538256732369718 		0.8032384690873406  0.14463548607274027 		Uiso   ? 		O 		-0.566841
O 1.0  		0.18987429865283784 		0.21442590775269874  0.14934832775376214 		Uiso   ? 		O 		-0.566840
O 1.0  		0.1640429001541888 		0.717369970559372  0.1478857217148243 		Uiso   ? 		O 		-0.566840
O 1.0  		0.7007550953890528 		0.2230127576054956  0.1462606038937823 		Uiso   ? 		O 		-0.566840
O 1.0  		0.6538170145476488 		0.7122178606476939  0.14772320993272012 		Uiso   ? 		O 		-0.566840
O 1.0  		0.07074987164820382 		0.30299313052011784  0.1985893977313355 		Uiso   ? 		O 		-0.599877
O 1.0  		0.04276939384169942 		0.8071638861629049  0.19501413852504304 		Uiso   ? 		O 		-0.599877
O 1.0  		0.5776328206490616 		0.30740922473012755  0.19663925634608506 		Uiso   ? 		O 		-0.599877
O 1.0  		0.5401624791936627 		0.8078999018645732  0.19566418565345986 		Uiso   ? 		O 		-0.599877
O 1.0  		0.1941262005741318 		0.2208047105004907  0.20102707446289855 		Uiso   ? 		O 		-0.599876
O 1.0  		0.16372516220705843 		0.7205593719332679  0.20005200377027335 		Uiso   ? 		O 		-0.599876
O 1.0  		0.6979926644498262 		0.2230127576054956  0.1985893977313355 		Uiso   ? 		O 		-0.599876
O 1.0  		0.6558454316978678 		0.7171246319921493  0.19972698020606494 		Uiso   ? 		O 		-0.599876
O 1.0  		0.3316110131471443 		0.0414622178606477  0.19468911496083463 		Uiso   ? 		O 		-0.599872
O 1.0  		0.2995254361771474 		0.5382728164867517  0.19420157961452206 		Uiso   ? 		O 		-0.599872
O 1.0  		0.8346670496019738 		0.039499509322865556  0.1916013911008548 		Uiso   ? 		O 		-0.599872
O 1.0  		0.7974333352657349 		0.5387634936211974  0.19696427991029347 		Uiso   ? 		O 		-0.599872
O 1.0  		0.279984741671939 		0.3066732090284593  0.1964767445639809 		Uiso   ? 		O 		-0.602434
O 1.0  		0.24990344942063375 		0.8096172718351325  0.19810186238502292 		Uiso   ? 		O 		-0.602434
O 1.0  		0.7844558436456164 		0.30839057899901867  0.1979393506029187 		Uiso   ? 		O 		-0.602434
O 1.0  		0.7418990404165311 		0.799558390578999  0.19696427991029347 		Uiso   ? 		O 		-0.602434
O 1.0  		0.25432724265308476 		0.16781157998037294  0.1992394448597523 		Uiso   ? 		O 		-0.599875
O 1.0  		0.21502355166832288 		0.6599607458292444  0.19956446842396072 		Uiso   ? 		O 		-0.599875
O 1.0  		0.7500599218336517 		0.1643768400392542  0.19728930347450188 		Uiso   ? 		O 		-0.599875
O 1.0  		0.7177464312778832 		0.6641315014720315  0.1987519095134397 		Uiso   ? 		O 		-0.599875
O 1.0  		0.45830668947456876 		0.2485279685966634  0.1457730685474697 		Uiso   ? 		O 		-0.566851
O 1.0  		0.4244071982106235 		0.7468105986261041  0.1462606038937823 		Uiso   ? 		O 		-0.566851
O 1.0  		0.9596057900318928 		0.24730127576054958  0.1473981863685117 		Uiso   ? 		O 		-0.566851
O 1.0  		0.9269571344622172 		0.7468105986261041  0.14528553320115709 		Uiso   ? 		O 		-0.566851
O 1.0  		0.33197902412596697 		0.042198233562315994  0.14398543894432345 		Uiso   ? 		O 		-0.566842
O 1.0  		0.30035128249615134 		0.5394995093228656  0.14236032112328142 		Uiso   ? 		O 		-0.566842
O 1.0  		0.8387875676636051 		0.04391560353287537  0.14154776221276041 		Uiso   ? 		O 		-0.566842
O 1.0  		0.7951200261333013 		0.5375368007850835  0.14463548607274027 		Uiso   ? 		O 		-0.566842
O 1.0  		0.24907185385870745 		0.16707556427870465  0.14853576884324113 		Uiso   ? 		O 		-0.566843
O 1.0  		0.21598949538037782 		0.6648675171736997  0.14853576884324113 		Uiso   ? 		O 		-0.566843
O 1.0  		0.7531092529237308 		0.16707556427870465  0.14528553320115709 		Uiso   ? 		O 		-0.566843
O 1.0  		0.7203137945962537 		0.6675662414131502  0.1464231156758865 		Uiso   ? 		O 		-0.566843
O 1.0  		0.14407660423062524 		0.35402355250245343  0.1927389735755842 		Uiso   ? 		O 		-1.135160
O 1.0  		0.1153513909330871 		0.8550049067713446  0.18965124971560438 		Uiso   ? 		O 		-1.135160
O 1.0  		0.6521118510310058 		0.35819430814524045  0.1914388793187506 		Uiso   ? 		O 		-1.135160
O 1.0  		0.6147380393017159 		0.8537782139352307  0.18997627327981279 		Uiso   ? 		O 		-1.135160
O 1.0  		0.27131599273806173 		0.3930323846908735  0.10937042935612831 		Uiso   ? 		O 		-0.567296
O 1.0  		0.24999725571139408 		0.899901864573111  0.11359573569083757 		Uiso   ? 		O 		-0.567296
O 1.0  		0.7867905617742283 		0.40358194308145245  0.11294568856242077 		Uiso   ? 		O 		-0.567296
O 1.0  		0.745997399807399 		0.889352306182532  0.10904540579191992 		Uiso   ? 		O 		-0.567296
O 1.0  		0.08930862590800281 		0.3231108930323847  0.11522085351187959 		Uiso   ? 		O 		-0.567387
O 1.0  		0.06923201104221638 		0.8294896957801766  0.11115805895927455 		Uiso   ? 		O 		-0.567387
O 1.0  		0.6087153507496953 		0.3368498527968597  0.11148308252348295 		Uiso   ? 		O 		-0.567387
O 1.0  		0.5656852932822898 		0.8304710500490677  0.11213312965189974 		Uiso   ? 		O 		-0.567387
O 1.0  		0.10225939929274085 		0.3388125613346418  0.3324991061851984 		Uiso   ? 		O 		-0.599529
O 1.0  		0.07063165766292517 		0.8361138370951914  0.3315240354925732 		Uiso   ? 		O 		-0.599529
O 1.0  		0.6036396106780352 		0.3356231599607459  0.3315240354925732 		Uiso   ? 		O 		-0.599529
O 1.0  		0.567501215744876 		0.8353778213935231  0.3344492475704488 		Uiso   ? 		O 		-0.599529
O 1.0  		0.15959280158084363 		0.21123650637880276  0.11814606558975524 		Uiso   ? 		O 		-0.567461
O 1.0  		0.13943507588708695 		0.7195780176643769  0.11473331816556699 		Uiso   ? 		O 		-0.567461
O 1.0  		0.6721822693515095 		0.221540726202159  0.11408327103715017 		Uiso   ? 		O 		-0.567461
O 1.0  		0.6274763868145687 		0.7139352306182533  0.11587090064029641 		Uiso   ? 		O 		-0.567461
O 1.0  		0.16301215181838308 		0.22105004906771347  0.33119901192836476 		Uiso   ? 		O 		-0.599528
O 1.0  		0.1342628060893176 		0.7232580961727184  0.33054896479994794 		Uiso   ? 		O 		-0.599528
O 1.0  		0.6666661210064447 		0.22325809617271838  0.33119901192836476 		Uiso   ? 		O 		-0.599528
O 1.0  		0.6334282462369253 		0.7203140333660452  0.3318490590567816 		Uiso   ? 		O 		-0.599528
O 1.0  		0.10019813617760624 		0.33341511285574094  0.22946663633113398 		Uiso   ? 		O 		-0.602062
O 1.0  		0.07211912047635488 		0.8361138370951914  0.22654142425325832 		Uiso   ? 		O 		-0.602062
O 1.0  		0.6053241492809587 		0.338567222767419  0.22751649494588355 		Uiso   ? 		O 		-0.602062
O 1.0  		0.5708857118488619 		0.8383218842001963  0.22637891247115416 		Uiso   ? 		O 		-0.602062
O 1.0  		0.16541528531217525 		0.22203140333660454  0.23206682484480123 		Uiso   ? 		O 		-0.602064
O 1.0  		0.13617525827801288 		0.7232580961727184  0.23125426593428022 		Uiso   ? 		O 		-0.602064
O 1.0  		0.6678097052725791 		0.22129538763493622  0.22946663633113398 		Uiso   ? 		O 		-0.602064
O 1.0  		0.6300370447681887 		0.7220314033366046  0.231091754152176 		Uiso   ? 		O 		-0.602064
O 1.0  		0.3628075000406638 		0.06943081452404318  0.22540384177852893 		Uiso   ? 		O 		-0.602064
O 1.0  		0.32929143865368016 		0.5655053974484789  0.22605388890694575 		Uiso   ? 		O 		-0.602064
O 1.0  		0.8600846204311036 		0.06526005888125615  0.22540384177852893 		Uiso   ? 		O 		-0.602064
O 1.0  		0.8271993377422676 		0.5659960745829244  0.22702895959957095 		Uiso   ? 		O 		-0.602064
O 1.0  		0.256034586377735 		0.1393523061825319  0.23027919524165502 		Uiso   ? 		O 		-0.602063
O 1.0  		0.2181942257748756 		0.6327281648675173  0.2301166834595508 		Uiso   ? 		O 		-0.602063
O 1.0  		0.7509085732743824 		0.1342001962708538  0.22800403029219618 		Uiso   ? 		O 		-0.602063
O 1.0  		0.720369445682896 		0.6366535819430815  0.2299541716774466 		Uiso   ? 		O 		-0.602063
O 1.0  		0.248076468475923 		0.042688910696761534  0.1964767445639809 		Uiso   ? 		O 		-0.602432
O 1.0  		0.21461738548538234 		0.538027477919529  0.19420157961452206 		Uiso   ? 		O 		-0.602432
O 1.0  		0.7495223717910486 		0.04048086359175663  0.19501413852504304 		Uiso   ? 		O 		-0.602432
O 1.0  		0.7157871103516817 		0.541216879293425  0.19420157961452206 		Uiso   ? 		O 		-0.602432
O 1.0  		0.06860552394433508 		0.2154072620215898  0.15048591022849156 		Uiso   ? 		O 		-0.567199
O 1.0  		0.042463092863306295 		0.7168792934249265  0.14593558032957388 		Uiso   ? 		O 		-0.567199
O 1.0  		0.5796089910068244 		0.22423945044160945  0.14463548607274027 		Uiso   ? 		O 		-0.567199
O 1.0  		0.5365876470728073 		0.7195780176643769  0.1469106510221991 		Uiso   ? 		O 		-0.567199
O 1.0  		0.4319003698116574 		0.24926398429833171  0.11375824747294178 		Uiso   ? 		O 		-0.567403
O 1.0  		0.39596575603274264 		0.7473012757605496  0.11522085351187959 		Uiso   ? 		O 		-0.567403
O 1.0  		0.9327349296640497 		0.25220804710500494  0.11652094776871322 		Uiso   ? 		O 		-0.567403
O 1.0  		0.8981718137370409 		0.7453385672227675  0.11343322390873337 		Uiso   ? 		O 		-0.567403
O 1.0  		0.36080522349060995 		0.06967615309126594  0.11229564143400395 		Uiso   ? 		O 		-0.567336
O 1.0  		0.3293088657204569 		0.5689401373895977  0.11034550004875353 		Uiso   ? 		O 		-0.567336
O 1.0  		0.8693311515960873 		0.07482826300294407  0.11148308252348295 		Uiso   ? 		O 		-0.567336
O 1.0  		0.8268313267634448 		0.5652600588812562  0.11327071212662916 		Uiso   ? 		O 		-0.567336
O 1.0  		0.3610331370763817 		0.06673209028459275  0.3336366886599278 		Uiso   ? 		O 		-0.599529
O 1.0  		0.3310242421196583 		0.5659960745829244  0.3336366886599278 		Uiso   ? 		O 		-0.599529
O 1.0  		0.8584986197229268 		0.06378802747791953  0.3323365944030942 		Uiso   ? 		O 		-0.599529
O 1.0  		0.8329782538066575 		0.5682041216879293  0.3323365944030942 		Uiso   ? 		O 		-0.599529
O 1.0  		0.2510091193377672 		0.14205103042198233  0.1150583417297754 		Uiso   ? 		O 		-0.567427
O 1.0  		0.21749305795078364 		0.6381256133464182  0.115545877076088 		Uiso   ? 		O 		-0.567427
O 1.0  		0.7513181437515092 		0.137144259077527  0.11375824747294178 		Uiso   ? 		O 		-0.567427
O 1.0  		0.7190877721923485 		0.641315014720314  0.11375824747294178 		Uiso   ? 		O 		-0.567427
O 1.0  		0.2552744319885623 		0.13910696761530914  0.33119901192836476 		Uiso   ? 		O 		-0.599532
O 1.0  		0.2183497420660654 		0.6334641805691855  0.33266161796730265 		Uiso   ? 		O 		-0.599532
O 1.0  		0.7506786515199729 		0.13076545632973505  0.33201157083888583 		Uiso   ? 		O 		-0.599532
O 1.0  		0.7207441620264693 		0.6327281648675173  0.33119901192836476 		Uiso   ? 		O 		-0.599532
O 1.0  		0.2531433573826992 		0.3532875368007851  0.19013878506191698 		Uiso   ? 		O 		-1.135160
O 1.0  		0.2254564850917979 		0.8554955839057901  0.19192641466506322 		Uiso   ? 		O 		-1.135160
O 1.0  		0.7617021314530924 		0.35893032384690876  0.1916013911008548 		Uiso   ? 		O 		-1.135160
O 1.0  		0.7220961214193391 		0.851324828263003  0.1903012968440212 		Uiso   ? 		O 		-1.135160
O 1.0  		0.31132598874674833 		0.405053974484789  0.16494945883576556 		Uiso   ? 		O 		-0.582774
O 1.0  		0.2864431068933774 		0.9094700686947988  0.1729125361588715 		Uiso   ? 		O 		-0.582774
O 1.0  		0.8200972575047741 		0.41069676153091267  0.17031234764520428 		Uiso   ? 		O 		-0.582774
O 1.0  		0.7847739871885928 		0.9035819430814525  0.1670621120031202 		Uiso   ? 		O 		-0.582774
O 1.0  		0.08571497059482237 		0.3567222767419039  0.17031234764520428 		Uiso   ? 		O 		-0.582791
O 1.0  		0.06173904588842566 		0.8604023552502454  0.1675496473494328 		Uiso   ? 		O 		-0.582791
O 1.0  		0.6005674744662295 		0.36432777232580965  0.16917476517047483 		Uiso   ? 		O 		-0.582791
O 1.0  		0.5614367268394341 		0.8606476938174682  0.16933727695257905 		Uiso   ? 		O 		-0.582791
O 1.0  		0.13707575091535365 		0.18277723258096173  0.178112913186206 		Uiso   ? 		O 		-0.582792
O 1.0  		0.10817088889509835 		0.6842492639842984  0.17388760685149673 		Uiso   ? 		O 		-0.582792
O 1.0  		0.6431656995621233 		0.18645731108930325  0.1719374654662463 		Uiso   ? 		O 		-0.582792
O 1.0  		0.6009614884137218 		0.6813052011776252  0.1734000715051841 		Uiso   ? 		O 		-0.582792
O 1.0  		0.44131044994238233 		0.28508341511285573  0.1706373712094127 		Uiso   ? 		O 		-0.582786
O 1.0  		0.40634848524027306 		0.7833660451422965  0.17144993011993367 		Uiso   ? 		O 		-0.582786
O 1.0  		0.9418493961105339 		0.28361138370951916  0.1734000715051841 		Uiso   ? 		O 		-0.582786
O 1.0  		0.9089641134216981 		0.7843473994111875  0.17047485942730844 		Uiso   ? 		O 		-0.582786
O 1.0  		0.38780545954947787 		0.06035328753680079  0.16836220625995385 		Uiso   ? 		O 		-0.582783
O 1.0  		0.35545040949540524 		0.5578999018645732  0.16949978873468324 		Uiso   ? 		O 		-0.582783
O 1.0  		0.8926358589685897 		0.061089303238469096  0.1675496473494328 		Uiso   ? 		O 		-0.582783
O 1.0  		0.8525565946965161 		0.555937193326791  0.16998732408099587 		Uiso   ? 		O 		-0.582783
O 1.0  		0.21297124294169384 		0.11187438665358196  0.17323755972307991 		Uiso   ? 		O 		-0.582791
O 1.0  		0.177836334881618 		0.6059862610402357  0.1719374654662463 		Uiso   ? 		O 		-0.582791
O 1.0  		0.7148180032005579 		0.11089303238469089  0.16982481229889165 		Uiso   ? 		O 		-0.582791
O 1.0  		0.6812054120874651 		0.6118743866535821  0.17144993011993367 		Uiso   ? 		O 		-0.582791
O 1.0  		0.21236796656138549 		0.06476938174681061  0.17144993011993367 		Uiso   ? 		O 		-0.583546
O 1.0  		0.1790228403637307 		0.5586359175662415  0.16917476517047483 		Uiso   ? 		O 		-0.583546
O 1.0  		0.7145170458692408 		0.06354268891069677  0.16884974160626642 		Uiso   ? 		O 		-0.583546
O 1.0  		0.6821224444855019 		0.5652600588812562  0.16933727695257905 		Uiso   ? 		O 		-0.583546
O 1.0  		0.43499333738442597 		0.10500490677134447  0.16771215913153703 		Uiso   ? 		O 		-0.583561
O 1.0  		0.40434695836480417 		0.6042688910696762  0.16836220625995385 		Uiso   ? 		O 		-0.583561
O 1.0  		0.9385574822111291 		0.10745829244357213  0.16933727695257905 		Uiso   ? 		O 		-0.583561
O 1.0  		0.9011421109835354 		0.6008341511285574  0.16884974160626642 		Uiso   ? 		O 		-0.583561
O 1.0  		0.18598427998083156 		0.4229636898920511  0.14268534468748983 		Uiso   ? 		O 		-0.567210
O 1.0  		0.16425597247703716 		0.9268891069676154  0.14138525043065622 		Uiso   ? 		O 		-0.567210
O 1.0  		0.7015071138800527 		0.43105986261040236  0.14349790359801085 		Uiso   ? 		O 		-0.567210
O 1.0  		0.6636667532771933 		0.9244357212953876  0.141222738648552 		Uiso   ? 		O 		-0.567210
O 1.0  		0.39529764062080963 		0.28655544651619236  0.17242500081255888 		Uiso   ? 		O 		-0.583554
O 1.0  		0.35892932393324095 		0.7828753680078508  0.1722624890304547 		Uiso   ? 		O 		-0.583554
O 1.0  		0.8969406197254292 		0.28729146221786067  0.17421263041570514 		Uiso   ? 		O 		-0.583554
O 1.0  		0.86182313873213 		0.784838076545633  0.17079988299151685 		Uiso   ? 		O 		-0.583554
O 1.0  		0.08946822735221605 		0.18105986261040236  0.17567523645464295 		Uiso   ? 		O 		-0.583562
O 1.0  		0.0612993872896061 		0.6840039254170756  0.17551272467253876 		Uiso   ? 		O 		-0.583562
O 1.0  		0.5990412099977186 		0.1891560353287537  0.16949978873468324 		Uiso   ? 		O 		-0.583562
O 1.0  		0.5555533171901318 		0.6822865554465163  0.17372509506939252 		Uiso   ? 		O 		-0.583562
O 1.0  		0.13325544051045424 		0.405053974484789  0.17144993011993367 		Uiso   ? 		O 		-0.583543
O 1.0  		0.10981846197220896 		0.907262021589794  0.16949978873468324 		Uiso   ? 		O 		-0.583543
O 1.0  		0.6454923162004363 		0.41167811579980373  0.16949978873468324 		Uiso   ? 		O 		-0.583543
O 1.0  		0.6089356372567621 		0.9067713444553485  0.16901225338837064 		Uiso   ? 		O 		-0.583543
O 1.0  		0.2730843656043043 		0.2988223748773307  0.14479799785484446 		Uiso   ? 		O 		-0.567209
O 1.0  		0.2505476388482828 		0.8049558390579  0.1470731628043033 		Uiso   ? 		O 		-0.567209
O 1.0  		0.7862697579395647 		0.30691854759568205  0.14723567458640752 		Uiso   ? 		O 		-0.567209
O 1.0  		0.7435815708508168 		0.7961236506378804  0.1464231156758865 		Uiso   ? 		O 		-0.567209
O 1.0  		0.2786186906907307 		0.12119725220804711  0.08141840283420547 		Uiso   ? 		O 		-0.727249
O 1.0  		0.24781009001516846 		0.6243866535819431  0.08060584392368446 		Uiso   ? 		O 		-0.727249
O 1.0  		0.7867678942839971 		0.12389597644749756  0.07914323788474664 		Uiso   ? 		O 		-0.727249
O 1.0  		0.7467630354751433 		0.6214425907752699  0.08060584392368446 		Uiso   ? 		O 		-0.727249
O 1.0  		0.31358368120041347 		0.3594210009813543  0.1675496473494328 		Uiso   ? 		O 		-0.583554
O 1.0  		0.2854718195342464 		0.8616290480863592  0.1730750479409757 		Uiso   ? 		O 		-0.583554
O 1.0  		0.8215947955692666 		0.3648184494602552  0.17128741833782948 		Uiso   ? 		O 		-0.583554
O 1.0  		0.7807620822727712 		0.8547595682041218  0.17031234764520428 		Uiso   ? 		O 		-0.583554
O 1.0  		0.41709548435234156 		0.18523061825318943  0.17014983586310006 		Uiso   ? 		O 		-0.925782
O 1.0  		0.38289367403940494 		0.6837585868498528  0.16933727695257905 		Uiso   ? 		O 		-0.925782
O 1.0  		0.9170626383874257 		0.1847399411187439  0.17144993011993367 		Uiso   ? 		O 		-0.925782
O 1.0  		0.8812091354364813 		0.6808145240431797  0.16998732408099587 		Uiso   ? 		O 		-0.925782
O 1.0  		0.29093466904004534 		0.11947988223748775  0.29885916728962847 		Uiso   ? 		O 		-0.555433
O 1.0  		0.2563802666464249 		0.6143277723258097  0.29918419085383685 		Uiso   ? 		O 		-0.555433
O 1.0  		0.7880891191042106 		0.11506378802747792  0.2993467026359411 		Uiso   ? 		O 		-0.555433
O 1.0  		0.7603539819502547 		0.6197252208047105  0.2986966555075243 		Uiso   ? 		O 		-0.555433
O 1.0  		0.3148372747379058 		0.1876840039254171  0.17144993011993367 		Uiso   ? 		O 		-0.925782
O 1.0  		0.2787384311344128 		0.6832679097154074  0.1722624890304547 		Uiso   ? 		O 		-0.925782
O 1.0  		0.8173630785579722 		0.18891069676153094  0.17242500081255888 		Uiso   ? 		O 		-0.925782
O 1.0  		0.7825720490451917 		0.6849852796859667  0.1716124419020379 		Uiso   ? 		O 		-0.925782
O 1.0  		0.3109715261289223 		0.08390578999018647  0.17079988299151685 		Uiso   ? 		O 		-0.925777
O 1.0  		0.27791330008211995 		0.5804710500490677  0.16836220625995385 		Uiso   ? 		O 		-0.925777
O 1.0  		0.8144612654924058 		0.0836604514229637  0.16933727695257905 		Uiso   ? 		O 		-0.925777
O 1.0  		0.7779220136155083 		0.5821884200196272  0.1706373712094127 		Uiso   ? 		O 		-0.925777
O 1.0  		0.2105800552361067 		0.38248282630029445  0.16917476517047483 		Uiso   ? 		O 		-0.925778
O 1.0  		0.18702911990497567 		0.886162904808636  0.16917476517047483 		Uiso   ? 		O 		-0.925778
O 1.0  		0.7217216115230092 		0.38861629048086366  0.16917476517047483 		Uiso   ? 		O 		-0.925778
O 1.0  		0.6838396914218455 		0.879784102060844  0.16559950596418238 		Uiso   ? 		O 		-0.925778
O 1.0  		0.2141603342276599 		0.2804219823356232  0.17096239477362107 		Uiso   ? 		O 		-0.925782
O 1.0  		0.1857548670458899 		0.7845927379784102  0.16998732408099587 		Uiso   ? 		O 		-0.925782
O 1.0  		0.7239370980274069 		0.28680078508341517  0.17047485942730844 		Uiso   ? 		O 		-0.925782
O 1.0  		0.6802038645672717 		0.7794406280667322  0.17096239477362107 		Uiso   ? 		O 		-0.925782
O 1.0  		0.11180358671847719 		0.2814033366045143  0.17242500081255888 		Uiso   ? 		O 		-0.925782
O 1.0  		0.08253071371939924 		0.7821393523061827  0.16966230051678746 		Uiso   ? 		O 		-0.925782
O 1.0  		0.6213678558305913 		0.28778213935230623  0.17079988299151685 		Uiso   ? 		O 		-0.925782
O 1.0  		0.5798252611766156 		0.7814033366045143  0.17047485942730844 		Uiso   ? 		O 		-0.925782
O 1.0  		0.17071148393027158 		0.4043179587831207  0.33331166509571947 		Uiso   ? 		O 		-0.583061
O 1.0  		0.1388712476128232 		0.9016192345436703  0.33266161796730265 		Uiso   ? 		O 		-0.583061
O 1.0  		0.6686917803134409 		0.40112855740922476  0.33314915331361517 		Uiso   ? 		O 		-0.583061
O 1.0  		0.6336158588184458 		0.9008832188420021  0.33493678291676143 		Uiso   ? 		O 		-0.583061
O 1.0  		0.42929685945780693 		0.13101079489695783  0.3341242240062404 		Uiso   ? 		O 		-0.583063
O 1.0  		0.39604356579014843 		0.6310107948969579  0.3316865472746774 		Uiso   ? 		O 		-0.583063
O 1.0  		0.9250054062068467 		0.12880274779195292  0.33022394123573956 		Uiso   ? 		O 		-0.583063
O 1.0  		0.8990687644487002 		0.6349362119725221  0.333799200442032 		Uiso   ? 		O 		-0.583063
O 1.0  		0.2471949710702767 		0.07237487733071639  0.1148958299476712 		Uiso   ? 		O 		-0.562233
O 1.0  		0.2147259642233182 		0.5713935230618254  0.11310820034452496 		Uiso   ? 		O 		-0.562233
O 1.0  		0.7544526364147077 		0.07286555446516192  0.11164559430558715 		Uiso   ? 		O 		-0.562233
O 1.0  		0.7147346777567065 		0.5731108930323847  0.11310820034452496 		Uiso   ? 		O 		-0.562233
O 1.0  		0.3748854895531438 		0.11653581943081454  0.07881821432053823 		Uiso   ? 		O 		-0.727307
O 1.0  		0.3485305637844822 		0.6180078508341512  0.07865570253843403 		Uiso   ? 		O 		-0.727307
O 1.0  		0.8863380784224261 		0.12414131501472032  0.08028082035947605 		Uiso   ? 		O 		-0.727307
O 1.0  		0.8471724766620774 		0.6135917566241413  0.08060584392368446 		Uiso   ? 		O 		-0.727307
O 1.0  		0.19134692020334412 		0.42688910696761534  0.1930639971397926 		Uiso   ? 		O 		-0.602431
O 1.0  		0.16594051107996072 		0.9298331697742886  0.1930639971397926 		Uiso   ? 		O 		-0.602431
O 1.0  		0.7024227845604153 		0.4320412168792934  0.19468911496083463 		Uiso   ? 		O 		-0.602431
O 1.0  		0.6678683821667948 		0.9268891069676154  0.1916013911008548 		Uiso   ? 		O 		-0.602431
O 1.0  		0.16507937062368325 		0.40112855740922476  0.2252413299964247 		Uiso   ? 		O 		-0.584773
O 1.0  		0.13808696079212318 		0.9026005888125613  0.22507881821432052 		Uiso   ? 		O 		-0.584773
O 1.0  		0.6725012657926925 		0.40407262021589796  0.22670393603536254 		Uiso   ? 		O 		-0.584773
O 1.0  		0.637081465750402 		0.9018645731108932  0.22247862970065327 		Uiso   ? 		O 		-0.584773
O 1.0  		0.3796830430073399 		0.1167811579980373  0.29820912016121165 		Uiso   ? 		O 		-0.555434
O 1.0  		0.34046247101918603 		0.6133464180569186  0.2985341437254201 		Uiso   ? 		O 		-0.555434
O 1.0  		0.8695885412604625 		0.11359175662414134  0.29788409659700327 		Uiso   ? 		O 		-0.555434
O 1.0  		0.847706725634116 		0.6231599607458294  0.29804660837910746 		Uiso   ? 		O 		-0.555434
O 1.0  		0.2515675351492071 		0.07262021589793916  0.33201157083888583 		Uiso   ? 		O 		-0.583064
O 1.0  		0.21572073756301313 		0.5640333660451423  0.333799200442032 		Uiso   ? 		O 		-0.583064
O 1.0  		0.7497670315847598 		0.06476938174681061  0.3336366886599278 		Uiso   ? 		O 		-0.583064
O 1.0  		0.7228161812515039 		0.5684494602551522  0.331361523710469 		Uiso   ? 		O 		-0.583064
O 1.0  		0.4582960021804165 		0.16265947006869483  0.19371404426820943 		Uiso   ? 		O 		-0.602436
O 1.0  		0.4226965534154088 		0.6609421000981355  0.19485162674293885 		Uiso   ? 		O 		-0.602436
O 1.0  		0.9587122780222936 		0.16094210009813545  0.19728930347450188 		Uiso   ? 		O 		-0.602436
O 1.0  		0.9228346426398218 		0.658243375858685  0.19566418565345986 		Uiso   ? 		O 		-0.602436
O 1.0  		0.4297962542962922 		0.13370951913640827  0.22540384177852893 		Uiso   ? 		O 		-0.584773
O 1.0  		0.39386164051737743 		0.6317468105986263  0.22686644781746673 		Uiso   ? 		O 		-0.584773
O 1.0  		0.9288148916860983 		0.1317468105986261  0.22784151851009196 		Uiso   ? 		O 		-0.584773
O 1.0  		0.8945232570118031 		0.6305201177625123  0.22767900672798777 		Uiso   ? 		O 		-0.584773
O 1.0  		0.2816491297727369 		0.4013738959764475  0.3334741768778236 		Uiso   ? 		O 		-0.599528
O 1.0  		0.24944959600985417 		0.8996565260058882  0.33396171222413623 		Uiso   ? 		O 		-0.599528
O 1.0  		0.7819842947866439 		0.4016192345436703  0.3316865472746774 		Uiso   ? 		O 		-0.599528
O 1.0  		0.7465316487794378 		0.8989205103042199  0.33396171222413623 		Uiso   ? 		O 		-0.599528
O 1.0  		0.4327087890638847 		0.24705593719332677  0.3323365944030942 		Uiso   ? 		O 		-0.599532
O 1.0  		0.39557160445375494 		0.7414131501472031  0.33054896479994794 		Uiso   ? 		O 		-0.599532
O 1.0  		0.9299704905561854 		0.24582924435721298  0.3318490590567816 		Uiso   ? 		O 		-0.599532
O 1.0  		0.8967674699202193 		0.7497546614327774  0.332986641531511 		Uiso   ? 		O 		-0.599532
O 1.0  		0.2770064117508935 		0.4256624141315015  0.1916013911008548 		Uiso   ? 		O 		-0.599872
O 1.0  		0.24929540702846492 		0.9290971540726203  0.19631423278187668 		Uiso   ? 		O 		-0.599872
O 1.0  		0.7849277017583881 		0.43130520117762516  0.19566418565345986 		Uiso   ? 		O 		-0.599872
O 1.0  		0.7474553521343513 		0.9254170755642788  0.19225143822927163 		Uiso   ? 		O 		-0.599872
O 1.0  		0.2821639435093611 		0.40112855740922476  0.2247537946501121 		Uiso   ? 		O 		-0.602063
O 1.0  		0.24961382583443245 		0.9021099116781159  0.22800403029219618 		Uiso   ? 		O 		-0.602063
O 1.0  		0.7825406680215721 		0.40358194308145245  0.2283290538564046 		Uiso   ? 		O 		-0.602063
O 1.0  		0.7482644522454158 		0.8994111874386654  0.2244287710859037 		Uiso   ? 		O 		-0.602063
O 1.0  		0.45989269018274537 		0.25  0.19680176812818928 		Uiso   ? 		O 		-0.599877
O 1.0  		0.4236711762529781 		0.7453385672227675  0.19728930347450188 		Uiso   ? 		O 		-0.599877
O 1.0  		0.9587470977479733 		0.24558390578999018  0.19842688594923133 		Uiso   ? 		O 		-0.599877
O 1.0  		0.9265234315535631 		0.7450932286555447  0.1961517209997725 		Uiso   ? 		O 		-0.599877
O 1.0  		0.378015216204482 		0.21884200196270856  0.08109337926999707 		Uiso   ? 		O 		-0.727503
O 1.0  		0.344181416870368 		0.7181059862610403  0.08158091461630967 		Uiso   ? 		O 		-0.727503
O 1.0  		0.8847185164826226 		0.22374877330716392  0.0827184970910391 		Uiso   ? 		O 		-0.727503
O 1.0  		0.8488650135316782 		0.7198233562315998  0.07995579679526765 		Uiso   ? 		O 		-0.727503
O 1.0  		0.42722218561317116 		0.1349362119725221  0.11148308252348295 		Uiso   ? 		O 		-0.562319
O 1.0  		0.3947290463346854 		0.6351815505397449  0.11164559430558715 		Uiso   ? 		O 		-0.562319
O 1.0  		0.9344161671964087 		0.14082433758586851  0.11229564143400395 		Uiso   ? 		O 		-0.562319
O 1.0  		0.8937543890892421 		0.6285574092247301  0.11310820034452496 		Uiso   ? 		O 		-0.562319
O 1.0  		0.43117976675215103 		0.24484789008832192  0.2299541716774466 		Uiso   ? 		O 		-0.602066
O 1.0  		0.3953436908679832 		0.7443572129538764  0.2293041245490298 		Uiso   ? 		O 		-0.602066
O 1.0  		0.9313594154748681 		0.24435721295387638  0.2309292423700718 		Uiso   ? 		O 		-0.602066
O 1.0  		0.8992825520382597 		0.7428851815505398  0.22751649494588355 		Uiso   ? 		O 		-0.602066
O 1.0  		0.3682350825184227 		0.25368007850834157  0.1150583417297754 		Uiso   ? 		O 		-0.562318
O 1.0  		0.33149875485203134 		0.7492639842983317  0.11700848311502583 		Uiso   ? 		O 		-0.562318
O 1.0  		0.867531906525693 		0.25269872423945045  0.11635843598660901 		Uiso   ? 		O 		-0.562318
O 1.0  		0.8354791755206117 		0.75  0.11408327103715017 		Uiso   ? 		O 		-0.562318
O 1.0  		0.36855282046555304 		0.25049067713444556  0.331361523710469 		Uiso   ? 		O 		-0.583064
O 1.0  		0.33180777926577326 		0.7443572129538764  0.3307114765820522 		Uiso   ? 		O 		-0.583064
O 1.0  		0.8633282694674536 		0.24386653581943082  0.33331166509571947 		Uiso   ? 		O 		-0.583064
O 1.0  		0.8296258539930021 		0.7450932286555447  0.332986641531511 		Uiso   ? 		O 		-0.583064
O 1.0  		0.25025100752510626 		0.07041216879293426  0.22849156563850875 		Uiso   ? 		O 		-0.584776
O 1.0  		0.21690588132745148 		0.5642787046123651  0.22751649494588355 		Uiso   ? 		O 		-0.584776
O 1.0  		0.7490001718308366 		0.06918547595682041  0.22540384177852893 		Uiso   ? 		O 		-0.584776
O 1.0  		0.7175607924571266 		0.5677134445534838  0.22702895959957095 		Uiso   ? 		O 		-0.584776
O 1.0  		0.45537805495000006 		0.16192345436702651  0.14366041538011504 		Uiso   ? 		O 		-0.567201
O 1.0  		0.4241357513657839 		0.6633954857703632  0.14301036825169824 		Uiso   ? 		O 		-0.567201
O 1.0  		0.9595555514080745 		0.16560353287536803  0.1457730685474697 		Uiso   ? 		O 		-0.567201
O 1.0  		0.9227930831415179 		0.6560353287536801  0.14479799785484446 		Uiso   ? 		O 		-0.567201
O 1.0  		0.36599417068057094 		0.24877330716388618  0.2296291481132382 		Uiso   ? 		O 		-0.584777
O 1.0  		0.3274023692219272 		0.7436211972522081  0.231091754152176 		Uiso   ? 		O 		-0.584777
O 1.0  		0.8672604252729794 		0.24705593719332677  0.2307667305879676 		Uiso   ? 		O 		-0.584777
O 1.0  		0.8337376585212453 		0.7477919528949952  0.22865407742061297 		Uiso   ? 		O 		-0.584777
O 1.0  		0.3830058291108963 		0.20927379784102063  0.2985341437254201 		Uiso   ? 		O 		-0.555433
O 1.0  		0.34173270754099627 		0.7021589793915605  0.2996717262001495 		Uiso   ? 		O 		-0.555433
O 1.0  		0.8757548691312157 		0.20412168792934252  0.2993467026359411 		Uiso   ? 		O 		-0.555433
O 1.0  		0.8440480248420676 		0.7097644749754661  0.29885916728962847 		Uiso   ? 		O 		-0.555433
O 1.0  		0.09918263470057011 		0.2230127576054956  0.23255436019111383 		Uiso   ? 		O 		-0.584776
O 1.0  		0.06890426665977095 		0.7230127576054957  0.22897910098482138 		Uiso   ? 		O 		-0.584776
O 1.0  		0.6043481991335888 		0.22399411187438667  0.22735398316377936 		Uiso   ? 		O 		-0.584776
O 1.0  		0.5666412305590297 		0.7257114818449462  0.2306042188058634 		Uiso   ? 		O 		-0.584776
O 1.0  		0.3391561562776435 		0.25417075564278707  0.1462606038937823 		Uiso   ? 		O 		-0.567207
O 1.0  		0.3008820927661301 		0.745829244357213  0.14804823349692853 		Uiso   ? 		O 		-0.567207
O 1.0  		0.8398506187369847 		0.25343473994111876  0.14804823349692853 		Uiso   ? 		O 		-0.567207
O 1.0  		0.8060563707325372 		0.7485279685966635  0.1460980921116781 		Uiso   ? 		O 		-0.567207
O 1.0  		0.2805008827183637 		0.33660451422963694  0.22719147138167514 		Uiso   ? 		O 		-0.584774
O 1.0  		0.2474272377734224 		0.8361138370951914  0.2297916598953424 		Uiso   ? 		O 		-0.584774
O 1.0  		0.7840891599765942 		0.33783120706575076  0.22897910098482138 		Uiso   ? 		O 		-0.584774
O 1.0  		0.7466168103525574 		0.8319430814524044  0.22719147138167514 		Uiso   ? 		O 		-0.584774
O 1.0  		0.09518277879657516 		0.2124631992149166  0.11895862450027626 		Uiso   ? 		O 		-0.562348
O 1.0  		0.07102720536746127 		0.7166339548577036  0.11473331816556699 		Uiso   ? 		O 		-0.562348
O 1.0  		0.6096934122893247 		0.22448478900883223  0.11343322390873337 		Uiso   ? 		O 		-0.562348
O 1.0  		0.5639491887457472 		0.7156526005888126  0.11635843598660901 		Uiso   ? 		O 		-0.562348
O 1.0  		0.09830852351851158 		0.22423945044160945  0.331361523710469 		Uiso   ? 		O 		-0.583063
O 1.0  		0.06998416716471179 		0.7264474975466143  0.33119901192836476 		Uiso   ? 		O 		-0.583063
O 1.0  		0.6029022958184632 		0.22620215897939158  0.3292488705431143 		Uiso   ? 		O 		-0.583063
O 1.0  		0.5670400793341303 		0.7205593719332679  0.332986641531511 		Uiso   ? 		O 		-0.583063
O 1.0  		0.1554648284798767 		0.39082433758586854  0.11294568856242077 		Uiso   ? 		O 		-0.562219
O 1.0  		0.13562484073325032 		0.8959764474975467  0.11034550004875353 		Uiso   ? 		O 		-0.562219
O 1.0  		0.6735791581289956 		0.40112855740922476  0.11197061786979555 		Uiso   ? 		O 		-0.562219
O 1.0  		0.6330092125518252 		0.8949950932286557  0.10985796470244093 		Uiso   ? 		O 		-0.562219
O 1.0  		0.27429496911007045 		0.32801766437684005  0.11262066499821236 		Uiso   ? 		O 		-0.562274
O 1.0  		0.25151290170150037 		0.8336604514229637  0.115545877076088 		Uiso   ? 		O 		-0.562274
O 1.0  		0.7871451964314237 		0.33586849852796863  0.1148958299476712 		Uiso   ? 		O 		-0.562274
O 1.0  		0.7436552954551993 		0.8226202158979393  0.11343322390873337 		Uiso   ? 		O 		-0.562274
O 1.0  		0.2777867166421918 		0.3341511285574093  0.33054896479994794 		Uiso   ? 		O 		-0.583063
O 1.0  		0.24939666835856064 		0.8353778213935231  0.3324991061851984 		Uiso   ? 		O 		-0.583063
O 1.0  		0.7806389719427769 		0.3339057899901865  0.3316865472746774 		Uiso   ? 		O 		-0.583063
O 1.0  		0.7473615458435912 		0.8351324828263004  0.33282412974940684 		Uiso   ? 		O 		-0.583063
O 1.0  		0.27434265633790944 		0.11604514229636899  0.19322650892189683 		Uiso   ? 		O 		-1.135160
O 1.0  		0.23902809955511645 		0.6106476938174681  0.19192641466506322 		Uiso   ? 		O 		-1.135160
O 1.0  		0.7737293047065382 		0.11481844946025517  0.1920889264471674 		Uiso   ? 		O 		-1.135160
O 1.0  		0.7411134951017782 		0.6148184494602551  0.191763902882959 		Uiso   ? 		O 		-1.135160
O 1.0  		0.3826164091358952 		0.1145731108930324  0.19013878506191698 		Uiso   ? 		O 		-1.135159
O 1.0  		0.3496808534153671 		0.6113837095191365  0.19046380862612536 		Uiso   ? 		O 		-1.135159
O 1.0  		0.8853701265417333 		0.11285574092247302  0.1914388793187506 		Uiso   ? 		O 		-1.135159
O 1.0  		0.8494596451943459 		0.6096663395485771  0.1920889264471674 		Uiso   ? 		O 		-1.135159
O 1.0  		0.385846681850618 		0.22473012757605498  0.1924139500113758 		Uiso   ? 		O 		-1.135165
O 1.0  		0.3510972118361415 		0.7230127576054957  0.19290148535768842 		Uiso   ? 		O 		-1.135165
O 1.0  		0.8861731333311367 		0.22325809617271838  0.19420157961452206 		Uiso   ? 		O 		-1.135165
O 1.0  		0.8545299728031821 		0.7235034347399412  0.19290148535768842 		Uiso   ? 		O 		-1.135165
O 1.0  		0.28950418462305855 		0.11874386653581943  0.2621315045340787 		Uiso   ? 		O 		-0.554021
O 1.0  		0.25272629745836317 		0.6121197252208048  0.2624565280982871 		Uiso   ? 		O 		-0.554021
O 1.0  		0.7871821619572366 		0.11579980372914622  0.26148145740566187 		Uiso   ? 		O 		-0.554021
O 1.0  		0.7559968367694633 		0.6165358194308146  0.26131894562355773 		Uiso   ? 		O 		-0.554021
O 1.0  		0.2725200285105728 		0.11579980372914622  0.14967335131797055 		Uiso   ? 		O 		-1.126120
O 1.0  		0.23855484531679624 		0.6131010794896958  0.14804823349692853 		Uiso   ? 		O 		-1.126120
O 1.0  		0.7761981301301618 		0.1167811579980373  0.14804823349692853 		Uiso   ? 		O 		-1.126120
O 1.0  		0.7418823630243392 		0.6167811579980373  0.14902330418955373 		Uiso   ? 		O 		-1.126120
O 1.0  		0.3820117710379124 		0.11506378802747792  0.1473981863685117 		Uiso   ? 		O 		-1.126121
O 1.0  		0.3499590400328312 		0.6123650637880276  0.14593558032957388 		Uiso   ? 		O 		-1.126121
O 1.0  		0.8867851920605812 		0.11653581943081454  0.1473981863685117 		Uiso   ? 		O 		-1.126121
O 1.0  		0.8482175230334646 		0.6101570166830227  0.14772320993272012 		Uiso   ? 		O 		-1.126121
O 1.0  		0.1387380964396399 		0.3488714425907753  0.14886079240744954 		Uiso   ? 		O 		-1.126119
O 1.0  		0.11585749113632288 		0.8530421982335623  0.1470731628043033 		Uiso   ? 		O 		-1.126119
O 1.0  		0.6519563347398158 		0.3574582924435722  0.1478857217148243 		Uiso   ? 		O 		-1.126119
O 1.0  		0.6123590382394509 		0.8515701668302258  0.1469106510221991 		Uiso   ? 		O 		-1.126119
O 1.0  		0.38786638546744856 		0.22791952894995096  0.14886079240744954 		Uiso   ? 		O 		-1.126131
O 1.0  		0.35061524406443306 		0.723748773307164  0.14934832775376214 		Uiso   ? 		O 		-1.126131
O 1.0  		0.8866155497731789 		0.22669283611383712  0.15032339844638737 		Uiso   ? 		O 		-1.126131
O 1.0  		0.8545299728031821 		0.7235034347399412  0.14902330418955373 		Uiso   ? 		O 		-1.126131
O 1.0  		0.1416373237013529 		0.23822374877330718  0.15162349270322098 		Uiso   ? 		O 		-1.126137
O 1.0  		0.11426148399283131 		0.7419038272816487  0.14999837488217896 		Uiso   ? 		O 		-1.126137
O 1.0  		0.6526736367287578 		0.24754661432777234  0.14902330418955373 		Uiso   ? 		O 		-1.126137
O 1.0  		0.6081145569496187 		0.7389597644749756  0.14934832775376214 		Uiso   ? 		O 		-1.126137
O 1.0  		0.37906969137596874 		0.11555446516192346  0.2609939220593493 		Uiso   ? 		O 		-0.554022
O 1.0  		0.3406508332752916 		0.6145731108930325  0.26148145740566187 		Uiso   ? 		O 		-0.554022
O 1.0  		0.8716893557052632 		0.11481844946025517  0.26148145740566187 		Uiso   ? 		O 		-0.554022
O 1.0  		0.8428588991482276 		0.6189892051030423  0.2609939220593493 		Uiso   ? 		O 		-0.554022
O 1.0  		0.37768474838668764 		0.20755642787046125  0.2626190398803913 		Uiso   ? 		O 		-0.554021
O 1.0  		0.3421576969162619 		0.7021589793915605  0.26294406344459975 		Uiso   ? 		O 		-0.554021
O 1.0  		0.8769071669307382 		0.20387634936211974  0.2621315045340787 		Uiso   ? 		O 		-0.554021
O 1.0  		0.8428695864423799 		0.704857703631011  0.26148145740566187 		Uiso   ? 		O 		-0.554021
O 1.0  		0.15503252169677104 		0.263738959764475  0.26326908700880813 		Uiso   ? 		O 		-0.554021
O 1.0  		0.12239257966048372 		0.7649656526005889  0.26050638671303666 		Uiso   ? 		O 		-0.554021
O 1.0  		0.6552121704194882 		0.2632482826300295  0.26148145740566187 		Uiso   ? 		O 		-0.554021
O 1.0  		0.617912764153418 		0.7615309126594701  0.2626190398803913 		Uiso   ? 		O 		-0.554021
O 1.0  		0.15582950398026105 		0.3550049067713445  0.2621315045340787 		Uiso   ? 		O 		-0.554022
O 1.0  		0.12287852936159394 		0.8547595682041218  0.2606688984951409 		Uiso   ? 		O 		-0.554022
O 1.0  		0.6588285620386476 		0.3537782139352306  0.26050638671303666 		Uiso   ? 		O 		-0.554022
O 1.0  		0.6218247694568183 		0.8564769381746812  0.2616439691877661 		Uiso   ? 		O 		-0.554022
O 1.0  		0.3363675847382519 		0.24901864573110893  0.1985893977313355 		Uiso   ? 		O 		-0.602434
O 1.0  		0.3001373572750964 		0.7426398429833171  0.1992394448597523 		Uiso   ? 		O 		-0.602434
O 1.0  		0.8405363676629378 		0.25098135426889107  0.19907693307764812 		Uiso   ? 		O 		-0.602434
O 1.0  		0.805778184115073 		0.7475466143277725  0.1971267916923977 		Uiso   ? 		O 		-0.602434
O 1.0  		0.24613974622420495 		0.3550049067713445  0.26050638671303666 		Uiso   ? 		O 		-0.554021
O 1.0  		0.21032780277156443 		0.8532875368007852  0.2619689927519745 		Uiso   ? 		O 		-0.554021
O 1.0  		0.7423128336781765 		0.34862610402355254  0.2618064809698703 		Uiso   ? 		O 		-0.554021
O 1.0  		0.7150113994328746 		0.8550049067713446  0.26131894562355773 		Uiso   ? 		O 		-0.554021
O 1.0  		0.13852430885008044 		0.24092247301275763  0.08531868560470635 		Uiso   ? 		O 		-0.727470
O 1.0  		0.12193743334777751 		0.7470559371933269  0.08190593818051808 		Uiso   ? 		O 		-0.727470
O 1.0  		0.6545793835527025 		0.25220804710500494  0.08060584392368446 		Uiso   ? 		O 		-0.727470
O 1.0  		0.6091287655247282 		0.7414131501472031  0.08158091461630967 		Uiso   ? 		O 		-0.727470
O 1.0  		0.152515431410093 		0.26422963689892054  0.29918419085383685 		Uiso   ? 		O 		-0.555433
O 1.0  		0.12235973369556807 		0.7644749754661434  0.29755907303279483 		Uiso   ? 		O 		-0.555433
O 1.0  		0.6552295974862647 		0.2666830225711482  0.29885916728962847 		Uiso   ? 		O 		-0.555433
O 1.0  		0.6217530874289475 		0.7585868498527969  0.2986966555075243 		Uiso   ? 		O 		-0.555433
O 1.0  		0.1379672203484411 		0.3405299313052012  0.08093086748789287 		Uiso   ? 		O 		-0.727164
O 1.0  		0.11977021170643432 		0.8464180569185478  0.07849319075632982 		Uiso   ? 		O 		-0.727164
O 1.0  		0.6577989345653992 		0.3542688910696762  0.07800565541001722 		Uiso   ? 		O 		-0.727164
O 1.0  		0.6139256037122132 		0.8432286555446517  0.07930574966685083 		Uiso   ? 		O 		-0.727164
O 1.0  		0.1565655259379064 		0.3564769381746811  0.2995092144180453 		Uiso   ? 		O 		-0.555434
O 1.0  		0.12412936505586353 		0.8559862610402356  0.2977215848148991 		Uiso   ? 		O 		-0.555434
O 1.0  		0.6579128913582851 		0.35279685966633956  0.29690902590437807 		Uiso   ? 		O 		-0.555434
O 1.0  		0.6143941607544205 		0.8518155053974485  0.2990216790717327 		Uiso   ? 		O 		-0.555434
O 1.0  		0.24006320830693648 		0.3420019627085378  0.07898072610264244 		Uiso   ? 		O 		-0.727128
O 1.0  		0.21961858246232732 		0.8476447497546615  0.08044333214158025 		Uiso   ? 		O 		-0.727128
O 1.0  		0.7595597575099875 		0.35549558390579006  0.08060584392368446 		Uiso   ? 		O 		-0.727128
O 1.0  		0.7137719662994684 		0.8380765456329735  0.07833067897422562 		Uiso   ? 		O 		-0.727128
O 1.0  		0.24269827172377598 		0.35279685966633956  0.29755907303279483 		Uiso   ? 		O 		-0.555433
O 1.0  		0.21625352159375583 		0.854514229636899  0.2977215848148991 		Uiso   ? 		O 		-0.555433
O 1.0  		0.7430971204988764 		0.3476447497546615  0.2983716319433159 		Uiso   ? 		O 		-0.555433
O 1.0  		0.7114318357080325 		0.8554955839057901  0.2986966555075243 		Uiso   ? 		O 		-0.555433
O 1.0  		0.3269320792740731 		0.10647693817468107  0.22784151851009196 		Uiso   ? 		O 		-0.981531
O 1.0  		0.2906864329127786 		0.6030421982335624  0.22702895959957095 		Uiso   ? 		O 		-0.981531
O 1.0  		0.8248641107941879 		0.10574092247301277  0.22654142425325832 		Uiso   ? 		O 		-0.981531
O 1.0  		0.79059660855142 		0.6032875368007852  0.2262164006890499 		Uiso   ? 		O 		-0.981531
O 1.0  		0.2504533237380546 		0.3496074582924436  0.1464231156758865 		Uiso   ? 		O 		-1.126115
O 1.0  		0.22678843161403767 		0.8547595682041218  0.14869828062534532 		Uiso   ? 		O 		-1.126115
O 1.0  		0.7636145836417877 		0.35893032384690876  0.14853576884324113 		Uiso   ? 		O 		-1.126115
O 1.0  		0.7233865084432749 		0.8483807654563299  0.1462606038937823 		Uiso   ? 		O 		-1.126115
O 1.0  		0.39191855697964756 		0.1710009813542689  0.22865407742061297 		Uiso   ? 		O 		-0.981534
O 1.0  		0.3575940763404367 		0.6692836113837096  0.2283290538564046 		Uiso   ? 		O 		-0.981534
O 1.0  		0.8913621837447193 		0.16903827281648676  0.22881658920271716 		Uiso   ? 		O 		-0.981534
O 1.0  		0.8595963528904904 		0.6690382728164868  0.22735398316377936 		Uiso   ? 		O 		-0.981534
O 1.0  		0.3270265664236705 		0.17296368989205105  0.22881658920271716 		Uiso   ? 		O 		-0.981533
O 1.0  		0.2918675259320674 		0.6683022571148186  0.2293041245490298 		Uiso   ? 		O 		-0.981533
O 1.0  		0.8264701931887424 		0.1710009813542689  0.22849156563850875 		Uiso   ? 		O 		-0.981533
O 1.0  		0.7932168995210839 		0.6710009813542689  0.22816654207430034 		Uiso   ? 		O 		-0.981533
O 1.0  		0.32272374501972084 		0.10868498527968598  0.11213312965189974 		Uiso   ? 		O 		-0.917177
O 1.0  		0.2910148925619351 		0.6079489695780178  0.10937042935612831 		Uiso   ? 		O 		-0.917177
O 1.0  		0.8308159702165443 		0.11211972522080473  0.11099554717717035 		Uiso   ? 		O 		-0.917177
O 1.0  		0.7906468815831122 		0.6072129538763494  0.11083303539506614 		Uiso   ? 		O 		-0.917177
O 1.0  		0.391086005295893 		0.17443572129538765  0.11132057074137876 		Uiso   ? 		O 		-0.917255
O 1.0  		0.35703099774075786 		0.67198233562316  0.11018298826664934 		Uiso   ? 		O 		-0.917255
O 1.0  		0.8928275222952594 		0.17664376840039256  0.11180810608769134 		Uiso   ? 		O 		-0.917255
O 1.0  		0.8574714060141624 		0.6690382728164868  0.11002047648454513 		Uiso   ? 		O 		-0.917255
Ti 1.0  		0.3785394587412056 		0.11874386653581943  0.7707933825202327 		Uiso   ? 		Ti 		2.083663
Ti 1.0  		0.34646259530459705 		0.6172718351324828  0.771930964994962 		Uiso   ? 		Ti 		2.083663
Ti 1.0  		0.8799525160914156 		0.11604514229636899  0.7714434296486494 		Uiso   ? 		Ti 		2.083663
Ti 1.0  		0.8470431009710526 		0.6180078508341512  0.7717684532128578 		Uiso   ? 		Ti 		2.083663
Ti 1.0  		0.37897714357926127 		0.21099116781158  0.7693307764812949 		Uiso   ? 		Ti 		2.083261
Ti 1.0  		0.35006356802561756 		0.7107458292443573  0.7703058471739201 		Uiso   ? 		Ti 		2.083261
Ti 1.0  		0.8812817391783064 		0.21050049067713447  0.7699808236097118 		Uiso   ? 		Ti 		2.083261
Ti 1.0  		0.8455924660519403 		0.709028459273798  0.771118406084441 		Uiso   ? 		Ti 		2.083261
Ti 1.0  		0.15544879753864832 		0.26202158979391565  0.7683557057886696 		Uiso   ? 		Ti 		2.082893
Ti 1.0  		0.11828748049699128 		0.7576054955839059  0.7727435239054831 		Uiso   ? 		Ti 		2.082893
Ti 1.0  		0.6547938864089731 		0.2585868498527969  0.7707933825202327 		Uiso   ? 		Ti 		2.082893
Ti 1.0  		0.6213280980536819 		0.7585868498527969  0.771118406084441 		Uiso   ? 		Ti 		2.082893
Ti 1.0  		0.15488098733498287 		0.35353287536800787  0.7717684532128578 		Uiso   ? 		Ti 		2.083373
Ti 1.0  		0.11888068162623688 		0.8505888125613348  0.7743686417265251 		Uiso   ? 		Ti 		2.083373
Ti 1.0  		0.6548722738015944 		0.3518155053974485  0.771930964994962 		Uiso   ? 		Ti 		2.083373
Ti 1.0  		0.6221096614390329 		0.8527968596663397  0.7737185945981083 		Uiso   ? 		Ti 		2.083373
Ti 1.0  		0.247929528086626 		0.3547595682041217  0.7716059414307537 		Uiso   ? 		Ti 		2.083973
Ti 1.0  		0.211830684483133 		0.850343473994112  0.7717684532128578 		Uiso   ? 		Ti 		2.083973
Ti 1.0  		0.748124595707482 		0.351324828263003  0.771930964994962 		Uiso   ? 		Ti 		2.083973
Ti 1.0  		0.7123454982197571 		0.8500981354268892  0.7732310592517957 		Uiso   ? 		Ti 		2.083973
Ti 1.0  		0.2871359052628198 		0.12463199214916586  0.8865017713784249 		Uiso   ? 		Ti 		2.081438
Ti 1.0  		0.26118183643789655 		0.6273307163886164  0.8881268891994669 		Uiso   ? 		Ti 		2.081438
Ti 1.0  		0.7887131924376081 		0.12438665358194309  0.8869893067247375 		Uiso   ? 		Ti 		2.081438
Ti 1.0  		0.745510191612236 		0.6138370951913641  0.8856892124679039 		Uiso   ? 		Ti 		2.081438
Ti 1.0  		0.15179282018194876 		0.25343473994111876  0.8843891182110702 		Uiso   ? 		Ti 		2.083833
Ti 1.0  		0.12456378323122858 		0.7561334641805693  0.8873143302889459 		Uiso   ? 		Ti 		2.083833
Ti 1.0  		0.6532474370304627 		0.2529440628066732  0.8860142360321123 		Uiso   ? 		Ti 		2.083833
Ti 1.0  		0.6193325268683785 		0.7541707556427871  0.8853641889036955 		Uiso   ? 		Ti 		2.083833
Ti 1.0  		0.15105407478895452 		0.3471540726202159  0.8873143302889459 		Uiso   ? 		Ti 		2.081836
Ti 1.0  		0.12254135617904915 		0.848135426889107  0.8892644716741964 		Uiso   ? 		Ti 		2.081836
Ti 1.0  		0.6520508562972872 		0.34617271835132485  0.8882894009815712 		Uiso   ? 		Ti 		2.081836
Ti 1.0  		0.6156999666764953 		0.8459273797841022  0.8882894009815712 		Uiso   ? 		Ti 		2.081836
Ti 1.0  		0.3804337685964131 		0.21687929342492643  0.8845516299931744 		Uiso   ? 		Ti 		2.067194
Ti 1.0  		0.35601542744797404 		0.7171246319921493  0.8856892124679039 		Uiso   ? 		Ti 		2.067194
Ti 1.0  		0.8828040561252896 		0.21736997055937196  0.8843891182110702 		Uiso   ? 		Ti 		2.067194
Ti 1.0  		0.8377542950410535 		0.707801766437684  0.8853641889036955 		Uiso   ? 		Ti 		2.067194
Ti 1.0  		0.2449110347928249 		0.34617271835132485  0.8878018656352585 		Uiso   ? 		Ti 		2.060990
Ti 1.0  		0.21844215223127736 		0.849116781157998  0.8861767478142165 		Uiso   ? 		Ti 		2.060990
Ti 1.0  		0.7441508804036523 		0.3459273797841021  0.8869893067247375 		Uiso   ? 		Ti 		2.060990
Ti 1.0  		0.7107179380132767 		0.8464180569185478  0.8878018656352585 		Uiso   ? 		Ti 		2.060990
Ti 1.0  		0.26327217003578834 		0.0760549558390579  0.8301101829882666 		Uiso   ? 		Ti 		2.060617
Ti 1.0  		0.23475945142588295 		0.577036310107949  0.8315727890272044 		Uiso   ? 		Ti 		2.060617
Ti 1.0  		0.7652744465858421 		0.07580961727183513  0.829622647641954 		Uiso   ? 		Ti 		2.060617
Ti 1.0  		0.7265512612675358 		0.568694798822375  0.8281600416030162 		Uiso   ? 		Ti 		2.060617
Ti 1.0  		0.4263916420980544 		0.14474975466143278  0.8276725062567035 		Uiso   ? 		Ti 		2.065890
Ti 1.0  		0.3967420445867654 		0.6430323846908734  0.8288100887314329 		Uiso   ? 		Ti 		2.065890
Ti 1.0  		0.9279032373430113 		0.14352306182531893  0.8279975298209119 		Uiso   ? 		Ti 		2.065890
Ti 1.0  		0.8897210063614943 		0.641315014720314  0.8297851594240582 		Uiso   ? 		Ti 		2.065890
Ti 1.0  		0.35679590437864167 		0.23675171736997058  0.8257223648714532 		Uiso   ? 		Ti 		2.062397
Ti 1.0  		0.33132380332542694 		0.7387144259077528  0.8273474826924951 		Uiso   ? 		Ti 		2.062397
Ti 1.0  		0.8596810056441424 		0.23699705593719333  0.8263724119998699 		Uiso   ? 		Ti 		2.062397
Ti 1.0  		0.8169532672257283 		0.7303729146221787  0.8268599473461825 		Uiso   ? 		Ti 		2.062397
Ti 1.0  		0.10744109789060957 		0.23527968596663396  0.8260473884356616 		Uiso   ? 		Ti 		2.064379
Ti 1.0  		0.07399072843345722 		0.7323356231599608  0.8309227418987877 		Uiso   ? 		Ti 		2.064379
Ti 1.0  		0.6062056810944789 		0.2311089303238469  0.8276725062567035 		Uiso   ? 		Ti 		2.064379
Ti 1.0  		0.5731648821144533 		0.7311089303238469  0.8271849709103909 		Uiso   ? 		Ti 		2.064379
Ti 1.0  		0.1759889969875384 		0.3974484789008833  0.8310852536808918 		Uiso   ? 		Ti 		2.056205
Ti 1.0  		0.1450315853855369 		0.8952404317958784  0.8317353008093087 		Uiso   ? 		Ti 		2.056205
Ti 1.0  		0.6763724268644999 		0.39524043179587837  0.830435206552475 		Uiso   ? 		Ti 		2.056205
Ti 1.0  		0.6426043194602173 		0.8954857703631012  0.8315727890272044 		Uiso   ? 		Ti 		2.056205
Ti 1.0  		0.2689256235228073 		0.3287536800785084  0.8283225533851204 		Uiso   ? 		Ti 		2.059575
Ti 1.0  		0.23696271687908468 		0.8258096172718352  0.8276725062567035 		Uiso   ? 		Ti 		2.059575
Ti 1.0  		0.7698238671363931 		0.3263002944062807  0.8292976240777455 		Uiso   ? 		Ti 		2.059575
Ti 1.0  		0.735418275669212 		0.8265456329735036  0.8289726005135372 		Uiso   ? 		Ti 		2.059575
Ti 1.0  		0.26935527568631185 		0.3954857703631011  0.8307602301166834 		Uiso   ? 		Ti 		2.061058
Ti 1.0  		0.23834959922125568 		0.8957311089303239  0.8286475769493288 		Uiso   ? 		Ti 		2.061058
Ti 1.0  		0.769870089422936 		0.39524043179587837  0.8307602301166834 		Uiso   ? 		Ti 		2.061058
Ti 1.0  		0.7352191573032065 		0.8949950932286557  0.8307602301166834 		Uiso   ? 		Ti 		2.061058
Ti 1.0  		0.38185155755060973 		0.12536800785083416  0.8868267949426333 		Uiso   ? 		Ti 		2.061718
Ti 1.0  		0.352561257484755 		0.6226692836113837  0.8879643774173628 		Uiso   ? 		Ti 		2.061718
Ti 1.0  		0.8815975033646728 		0.12315996074582926  0.8873143302889459 		Uiso   ? 		Ti 		2.061718
Ti 1.0  		0.8410275577875026 		0.6170264965652601  0.8871518185068417 		Uiso   ? 		Ti 		2.061718
Ti 1.0  		0.10748663931831526 		0.32801766437684005  0.8284850651672245 		Uiso   ? 		Ti 		2.059911
Ti 1.0  		0.0753199515203482 		0.8267909715407263  0.8330353950661423 		Uiso   ? 		Ti 		2.059911
Ti 1.0  		0.6077232664374754 		0.3267909715407262  0.8294601358598498 		Uiso   ? 		Ti 		2.059911
Ti 1.0  		0.5724589826863746 		0.8253189401373896  0.829622647641954 		Uiso   ? 		Ti 		2.059911
Ti 1.0  		0.2853112692668453 		0.11800785083415113  0.7720934767770663 		Uiso   ? 		Ti 		2.084465
Ti 1.0  		0.2537820655317766 		0.6167811579980373  0.7720934767770663 		Uiso   ? 		Ti 		2.084465
Ti 1.0  		0.7896838333457756 		0.1182531894013739  0.7706308707381284 		Uiso   ? 		Ti 		2.084465
Ti 1.0  		0.7533812085880383 		0.6155544651619235  0.7701433353918158 		Uiso   ? 		Ti 		2.084465
Ti 1.0  		0.17652600380279984 		0.23405299313052014  0.8258848766535573 		Uiso   ? 		Ti 		2.066069
Ti 1.0  		0.14320701820531012 		0.7330716388616291  0.8276725062567035 		Uiso   ? 		Ti 		2.066069
Ti 1.0  		0.6768524552833185 		0.2325809617271835  0.8263724119998699 		Uiso   ? 		Ti 		2.066069
Ti 1.0  		0.6425695341424116 		0.7330716388616291  0.8260473884356616 		Uiso   ? 		Ti 		2.066069
Ti 1.0  		0.42606917254693744 		0.23675171736997058  0.8262099002177656 		Uiso   ? 		Ti 		2.065099
Ti 1.0  		0.3990023572521578 		0.7355250245338568  0.8275099944745993 		Uiso   ? 		Ti 		2.065099
Ti 1.0  		0.9285621304020882 		0.23748773307163887  0.8270224591282868 		Uiso   ? 		Ti 		2.065099
Ti 1.0  		0.8865375679764039 		0.7318449460255153  0.8291351122956414 		Uiso   ? 		Ti 		2.065099
Ti 1.0  		0.3570721516432157 		0.07580961727183513  0.8299476712061624 		Uiso   ? 		Ti 		2.061829
Ti 1.0  		0.3269077403953025 		0.5743375858684986  0.8307602301166834 		Uiso   ? 		Ti 		2.061829
Ti 1.0  		0.8588860659371641 		0.07433758586849853  0.829622647641954 		Uiso   ? 		Ti 		2.061829
Ti 1.0  		0.8217904408253383 		0.5709028459273798  0.8294601358598498 		Uiso   ? 		Ti 		2.061829
Ti 1.0  		0.26295038134350857 		0.14425907752698724  0.8279975298209119 		Uiso   ? 		Ti 		2.062220
Ti 1.0  		0.23608064183822272 		0.6459764474975467  0.8288100887314329 		Uiso   ? 		Ti 		2.062220
Ti 1.0  		0.7655572959915451 		0.14352306182531893  0.8276725062567035 		Uiso   ? 		Ti 		2.062220
Ti 1.0  		0.7238591850463796 		0.6364082433758587  0.8270224591282868 		Uiso   ? 		Ti 		2.062220
Ti 1.0  		0.37956908621445395 		0.1182531894013739  0.33314915331361517 		Uiso   ? 		Ti 		2.088806
Ti 1.0  		0.3454483867294876 		0.6148184494602551  0.33282412974940684 		Uiso   ? 		Ti 		2.088806
Ti 1.0  		0.875693908805371 		0.11432777232580964  0.3324991061851984 		Uiso   ? 		Ti 		2.088806
Ti 1.0  		0.8487517720055033 		0.6197252208047105  0.33282412974940684 		Uiso   ? 		Ti 		2.088806
Ti 1.0  		0.3794068645585135 		0.12217860647693819  0.5517275002437676 		Uiso   ? 		Ti 		2.088902
Ti 1.0  		0.34897298022652457 		0.6214425907752699  0.5522150355900802 		Uiso   ? 		Ti 		2.088902
Ti 1.0  		0.880296394638711 		0.11800785083415113  0.5522150355900802 		Uiso   ? 		Ti 		2.088902
Ti 1.0  		0.8478689472900565 		0.619234543670265  0.5523775473721845 		Uiso   ? 		Ti 		2.088902
Ti 1.0  		0.28484672856191345 		0.12217860647693819  0.4459323300939318 		Uiso   ? 		Ti 		2.088927
Ti 1.0  		0.25403611971771345 		0.6189892051030423  0.4465823772223486 		Uiso   ? 		Ti 		2.088927
Ti 1.0  		0.7860057317261866 		0.11727183513248284  0.447719959697078 		Uiso   ? 		Ti 		2.088927
Ti 1.0  		0.7535782843775323 		0.6184985279685967  0.4470699125686612 		Uiso   ? 		Ti 		2.088927
Ti 1.0  		0.38326859683022146 		0.21319921491658492  0.33266161796730265 		Uiso   ? 		Ti 		2.088807
Ti 1.0  		0.34577211477465736 		0.7085377821393524  0.33217408262099 		Uiso   ? 		Ti 		2.088807
Ti 1.0  		0.8779957809690674 		0.20902845927379785  0.33314915331361517 		Uiso   ? 		Ti 		2.088807
Ti 1.0  		0.8467621909182397 		0.7122178606476939  0.333799200442032 		Uiso   ? 		Ti 		2.088807
Ti 1.0  		0.380490746992856 		0.21614327772325811  0.5523775473721845 		Uiso   ? 		Ti 		2.088902
Ti 1.0  		0.3450622334171772 		0.7122178606476939  0.5523775473721845 		Uiso   ? 		Ti 		2.088902
Ti 1.0  		0.8782981000180587 		0.2087831207065751  0.5523775473721845 		Uiso   ? 		Ti 		2.088902
Ti 1.0  		0.8477676859599607 		0.7129538763493622  0.5530275945006012 		Uiso   ? 		Ti 		2.088902
Ti 1.0  		0.14877834322542322 		0.25760549558390583  0.3318490590567816 		Uiso   ? 		Ti 		2.088807
Ti 1.0  		0.12130396562215462 		0.7598135426889108  0.3308739883641564 		Uiso   ? 		Ti 		2.088807
Ti 1.0  		0.6536174561779232 		0.2600588812561335  0.3316865472746774 		Uiso   ? 		Ti 		2.088807
Ti 1.0  		0.6176412829007044 		0.7558881256133465  0.3323365944030942 		Uiso   ? 		Ti 		2.088807
Ti 1.0  		0.3800898900491177 		0.21491658488714427  0.4462573536581402 		Uiso   ? 		Ti 		2.088928
Ti 1.0  		0.3463941799394169 		0.7114818449460255  0.44641986544024437 		Uiso   ? 		Ti 		2.088928
Ti 1.0  		0.8789771435792612 		0.21099116781158  0.4473949361328696 		Uiso   ? 		Ti 		2.088928
Ti 1.0  		0.8464840043007755 		0.7112365063788029  0.4475574479149738 		Uiso   ? 		Ti 		2.088928
Ti 1.0  		0.15432063217065298 		0.2610402355250246  0.5514024766795592 		Uiso   ? 		Ti 		2.088902
Ti 1.0  		0.12091182221180469 		0.7603042198233564  0.5530275945006012 		Uiso   ? 		Ti 		2.088902
Ti 1.0  		0.6536570075075895 		0.25588812561334645  0.5523775473721845 		Uiso   ? 		Ti 		2.088902
Ti 1.0  		0.6182217885671599 		0.7566241413150148  0.5530275945006012 		Uiso   ? 		Ti 		2.088902
Ti 1.0  		0.2866365104243345 		0.12193326790971541  0.6666233301914389 		Uiso   ? 		Ti 		2.088764
Ti 1.0  		0.25250709740597976 		0.6167811579980373  0.6669483537556472 		Uiso   ? 		Ti 		2.088764
Ti 1.0  		0.7843211931232631 		0.11432777232580964  0.665973283063022 		Uiso   ? 		Ti 		2.088764
Ti 1.0  		0.7534797464827852 		0.6170264965652601  0.6666233301914389 		Uiso   ? 		Ti 		2.088764
Ti 1.0  		0.15284586482001333 		0.3532875368007851  0.33282412974940684 		Uiso   ? 		Ti 		2.088808
Ti 1.0  		0.12176578289173762 		0.8508341511285574  0.33201157083888583 		Uiso   ? 		Ti 		2.088808
Ti 1.0  		0.6540464274825906 		0.3505888125613347  0.3316865472746774 		Uiso   ? 		Ti 		2.088808
Ti 1.0  		0.6176626918968828 		0.8498527968596664  0.3336366886599278 		Uiso   ? 		Ti 		2.088808
Ti 1.0  		0.1525348322376336 		0.3518155053974485  0.5509149413332466 		Uiso   ? 		Ti 		2.088902
Ti 1.0  		0.12007453892406345 		0.8525515210991169  0.5525400591542886 		Uiso   ? 		Ti 		2.088902
Ti 1.0  		0.6537923732966537 		0.34838076545632973  0.5505899177690382 		Uiso   ? 		Ti 		2.088902
Ti 1.0  		0.6176211323985789 		0.8476447497546615  0.5525400591542886 		Uiso   ? 		Ti 		2.088902
Ti 1.0  		0.24398865874771175 		0.34985279685966636  0.33217408262099 		Uiso   ? 		Ti 		2.088807
Ti 1.0  		0.2147157857486338 		0.8505888125613348  0.3323365944030942 		Uiso   ? 		Ti 		2.088807
Ti 1.0  		0.7470292763044023 		0.3508341511285574  0.3323365944030942 		Uiso   ? 		Ti 		2.088807
Ti 1.0  		0.711830684483133 		0.850343473994112  0.332986641531511 		Uiso   ? 		Ti 		2.088807
Ti 1.0  		0.24600836236454238 		0.35304219823356237  0.5522150355900802 		Uiso   ? 		Ti 		2.088903
Ti 1.0  		0.21341668519130963 		0.8518155053974485  0.5522150355900802 		Uiso   ? 		Ti 		2.088903
Ti 1.0  		0.7468080680833813 		0.3491167811579981  0.5507524295511423 		Uiso   ? 		Ti 		2.088903
Ti 1.0  		0.7098525403646064 		0.8493621197252209  0.5515649884616635 		Uiso   ? 		Ti 		2.088903
Ti 1.0  		0.3804163415296364 		0.21344455348380767  0.6664608184093346 		Uiso   ? 		Ti 		2.088761
Ti 1.0  		0.34511921181362004 		0.7114818449460255  0.6671108655377516 		Uiso   ? 		Ti 		2.088761
Ti 1.0  		0.8788370461862103 		0.2073110893032385  0.6677609126661682 		Uiso   ? 		Ti 		2.088761
Ti 1.0  		0.8467776098163784 		0.7092737978410206  0.6672733773198556 		Uiso   ? 		Ti 		2.088761
Ti 1.0  		0.15224395015737946 		0.2585868498527969  0.44560730652972336 		Uiso   ? 		Ti 		2.088929
Ti 1.0  		0.11998743799805378 		0.7576054955839059  0.4475574479149738 		Uiso   ? 		Ti 		2.088929
Ti 1.0  		0.6535517642480919 		0.25907752698724246  0.446907400786557 		Uiso   ? 		Ti 		2.088929
Ti 1.0  		0.6186709103739528 		0.755397448478901  0.4467448890044528 		Uiso   ? 		Ti 		2.088929
Ti 1.0  		0.15335669662723586 		0.26251226692836116  0.665973283063022 		Uiso   ? 		Ti 		2.088751
Ti 1.0  		0.11975952441228199 		0.7605495583905791  0.6685734715766892 		Uiso   ? 		Ti 		2.088751
Ti 1.0  		0.6552430082157661 		0.257360157016683  0.6669483537556472 		Uiso   ? 		Ti 		2.088751
Ti 1.0  		0.6188110077670037 		0.7590775269872424  0.6671108655377516 		Uiso   ? 		Ti 		2.088751
Ti 1.0  		0.15192148060626245 		0.3505888125613347  0.446907400786557 		Uiso   ? 		Ti 		2.088929
Ti 1.0  		0.1224689588844673 		0.8518155053974485  0.4475574479149738 		Uiso   ? 		Ti 		2.088929
Ti 1.0  		0.6546597791139617 		0.3518155053974485  0.44641986544024437 		Uiso   ? 		Ti 		2.088929
Ti 1.0  		0.6182673299948657 		0.8493621197252209  0.447719959697078 		Uiso   ? 		Ti 		2.088929
Ti 1.0  		0.15294440271476029 		0.3547595682041217  0.6648357005882927 		Uiso   ? 		Ti 		2.088751
Ti 1.0  		0.1209660771728987 		0.8547595682041218  0.667598400884064 		Uiso   ? 		Ti 		2.088751
Ti 1.0  		0.6549862305944804 		0.35034347399411186  0.666785841973543 		Uiso   ? 		Ti 		2.088751
Ti 1.0  		0.6200416929591478 		0.8520608439646713  0.6662983066272303 		Uiso   ? 		Ti 		2.088751
Ti 1.0  		0.24344099904617195 		0.3496074582924436  0.44576981831182755 		Uiso   ? 		Ti 		2.088929
Ti 1.0  		0.21447044509608523 		0.8500981354268892  0.4470699125686612 		Uiso   ? 		Ti 		2.088929
Ti 1.0  		0.7461792975538711 		0.3508341511285574  0.4465823772223486 		Uiso   ? 		Ti 		2.088929
Ti 1.0  		0.7111187949570149 		0.8476447497546615  0.446907400786557 		Uiso   ? 		Ti 		2.088929
Ti 1.0  		0.24693274657829323 		0.35574092247301276  0.6664608184093346 		Uiso   ? 		Ti 		2.088763
Ti 1.0  		0.21412857471742777 		0.854514229636899  0.6677609126661682 		Uiso   ? 		Ti 		2.088763
Ti 1.0  		0.7477894306935751 		0.35107948969578023  0.6666233301914389 		Uiso   ? 		Ti 		2.088763
Ti 1.0  		0.7140870152191237 		0.8523061825318942  0.6669483537556472 		Uiso   ? 		Ti 		2.088763
Ti 1.0  		0.26111437719454456 		0.07556427870461237  0.3898657652679819 		Uiso   ? 		Ti 		2.078171
Ti 1.0  		0.2285709648843664 		0.5718842001962708  0.3906783241785029 		Uiso   ? 		Ti 		2.078171
Ti 1.0  		0.7617170071238895 		0.06869479882237489  0.3906783241785029 		Uiso   ? 		Ti 		2.078171
Ti 1.0  		0.7332545615456765 		0.5736015701668303  0.3898657652679819 		Uiso   ? 		Ti 		2.078171
Ti 1.0  		0.26162919093116876 		0.0753189401373896  0.6087691357623427 		Uiso   ? 		Ti 		2.078183
Ti 1.0  		0.23039359271170312 		0.5721295387634936  0.6084441121981343 		Uiso   ? 		Ti 		2.078183
Ti 1.0  		0.7614475340398138 		0.06943081452404318  0.6077940650697176 		Uiso   ? 		Ti 		2.078183
Ti 1.0  		0.7325513855529469 		0.5726202158979392  0.608931647544447 		Uiso   ? 		Ti 		2.078183
Ti 1.0  		0.4249765765792066 		0.14106967615309127  0.3908408359606071 		Uiso   ? 		Ti 		2.078170
Ti 1.0  		0.3913465583993372 		0.6386162904808637  0.3900282770500861 		Uiso   ? 		Ti 		2.078170
Ti 1.0  		0.9245428736705525 		0.1393523061825319  0.38905320635746093 		Uiso   ? 		Ti 		2.078170
Ti 1.0  		0.8947639004682388 		0.6420510304219824  0.3905158123963987 		Uiso   ? 		Ti 		2.078170
Ti 1.0  		0.42422513572342235 		0.14254170755642787  0.6081190886339259 		Uiso   ? 		Ti 		2.078182
Ti 1.0  		0.39160932611866234 		0.642541707556428  0.6099067182370722 		Uiso   ? 		Ti 		2.078182
Ti 1.0  		0.9263655014978892 		0.13959764474975467  0.6090941593265512 		Uiso   ? 		Ti 		2.078182
Ti 1.0  		0.8950092411207873 		0.642541707556428  0.6095816946728637 		Uiso   ? 		Ti 		2.078182
Ti 1.0  		0.3596897191775308 		0.23871442590775271  0.38905320635746093 		Uiso   ? 		Ti 		2.078169
Ti 1.0  		0.3260597009976613 		0.7362610402355251  0.3885656710111483 		Uiso   ? 		Ti 		2.078169
Ti 1.0  		0.8561081472840508 		0.2328263002944063  0.39100334774271134 		Uiso   ? 		Ti 		2.078169
Ti 1.0  		0.8223487534131566 		0.7347890088321886  0.3898657652679819 		Uiso   ? 		Ti 		2.078169
Ti 1.0  		0.3573764100450971 		0.23748773307163887  0.6099067182370722 		Uiso   ? 		Ti 		2.078182
Ti 1.0  		0.32189963160636365 		0.7360157016683023  0.6094191828907596 		Uiso   ? 		Ti 		2.078182
Ti 1.0  		0.8556744443753969 		0.2311089303238469  0.6107192771475931 		Uiso   ? 		Ti 		2.078182
Ti 1.0  		0.8257245359837542 		0.7360157016683023  0.6099067182370722 		Uiso   ? 		Ti 		2.078182
Ti 1.0  		0.3768153688086158 		0.11997055937193328  0.44804498326128644 		Uiso   ? 		Ti 		2.088928
Ti 1.0  		0.3459564951013612 		0.619234543670265  0.4472324243507654 		Uiso   ? 		Ti 		2.088928
Ti 1.0  		0.8787760858603656 		0.1175171736997056  0.4475574479149738 		Uiso   ? 		Ti 		2.088928
Ti 1.0  		0.847231463227158 		0.619234543670265  0.4478824714791822 		Uiso   ? 		Ti 		2.088928
Ti 1.0  		0.1036403259447463 		0.23405299313052014  0.38921571813956507 		Uiso   ? 		Ti 		2.078173
Ti 1.0  		0.07257767108324725 		0.7350343473994112  0.3898657652679819 		Uiso   ? 		Ti 		2.078173
Ti 1.0  		0.6063699109190571 		0.2335623159960746  0.38872818279325244 		Uiso   ? 		Ti 		2.078173
Ti 1.0  		0.5714407921818634 		0.7323356231599608  0.38872818279325244 		Uiso   ? 		Ti 		2.078173
Ti 1.0  		0.28918644667592824 		0.12193326790971541  0.33282412974940684 		Uiso   ? 		Ti 		2.088805
Ti 1.0  		0.25277657049005553 		0.6160451422963691  0.3336366886599278 		Uiso   ? 		Ti 		2.088805
Ti 1.0  		0.7854493584912584 		0.11530912659470069  0.33314915331361517 		Uiso   ? 		Ti 		2.088805
Ti 1.0  		0.7566758803306657 		0.6187438665358195  0.3323365944030942 		Uiso   ? 		Ti 		2.088805
Ti 1.0  		0.10741696545908228 		0.2365063788027478  0.6079565768518217 		Uiso   ? 		Ti 		2.078185
Ti 1.0  		0.0735831661249684 		0.7357703631010796  0.6095816946728637 		Uiso   ? 		Ti 		2.078185
Ti 1.0  		0.608372187469111 		0.23331697742885182  0.6097442064549679 		Uiso   ? 		Ti 		2.078185
Ti 1.0  		0.5724462872235846 		0.7330716388616291  0.6097442064549679 		Uiso   ? 		Ti 		2.078185
Ti 1.0  		0.1745913585354673 		0.3972031403336605  0.3908408359606071 		Uiso   ? 		Ti 		2.078170
Ti 1.0  		0.1450161664873979 		0.8981844946025516  0.3897032534858777 		Uiso   ? 		Ti 		2.078170
Ti 1.0  		0.6772880975448625 		0.39622178606476943  0.38937822992166926 		Uiso   ? 		Ti 		2.078170
Ti 1.0  		0.6424816491339431 		0.8952404317958784  0.3913283713069197 		Uiso   ? 		Ti 		2.078170
Ti 1.0  		0.17475558836004554 		0.3996565260058882  0.6076315532876133 		Uiso   ? 		Ti 		2.078181
Ti 1.0  		0.14298975750581677 		0.8996565260058882  0.6110443007118015 		Uiso   ? 		Ti 		2.078181
Ti 1.0  		0.6758904590927914 		0.3959764474975467  0.6081190886339259 		Uiso   ? 		Ti 		2.078181
Ti 1.0  		0.639629393833358 		0.8954857703631012  0.6094191828907596 		Uiso   ? 		Ti 		2.078181
Ti 1.0  		0.37863799663595255 		0.12021589793915605  0.6653232359346053 		Uiso   ? 		Ti 		2.088765
Ti 1.0  		0.34440334035810033 		0.618253189401374  0.6671108655377516 		Uiso   ? 		Ti 		2.088765
Ti 1.0  		0.8769031850013366 		0.11334641805691856  0.6664608184093346 		Uiso   ? 		Ti 		2.088765
Ti 1.0  		0.8468875846798627 		0.6172718351324828  0.6666233301914389 		Uiso   ? 		Ti 		2.088765
Ti 1.0  		0.2674622931409049 		0.32752698724239454  0.38872818279325244 		Uiso   ? 		Ti 		2.078172
Ti 1.0  		0.2365705734687347 		0.8263002944062807  0.3897032534858777 		Uiso   ? 		Ti 		2.078172
Ti 1.0  		0.7691294046770517 		0.327036310107949  0.3898657652679819 		Uiso   ? 		Ti 		2.078172
Ti 1.0  		0.7354511216341276 		0.8270363101079491  0.3908408359606071 		Uiso   ? 		Ti 		2.078172
Ti 1.0  		0.27100230553608085 		0.33120706575073605  0.6100692300191763 		Uiso   ? 		Ti 		2.078186
Ti 1.0  		0.23756064961231685 		0.8299803729146222  0.6095816946728637 		Uiso   ? 		Ti 		2.078186
Ti 1.0  		0.7710177244342198 		0.32826300294406285  0.6087691357623427 		Uiso   ? 		Ti 		2.078186
Ti 1.0  		0.736244121988216 		0.8277723258096173  0.6090941593265512 		Uiso   ? 		Ti 		2.078186
Ti 1.0  		0.28774054336080257 		0.12414131501472032  0.552052523807976 		Uiso   ? 		Ti 		2.088900
Ti 1.0  		0.25388060342652363 		0.618253189401374  0.552052523807976 		Uiso   ? 		Ti 		2.088900
Ti 1.0  		0.7861525344839883 		0.11629048086359176  0.5510774531153508 		Uiso   ? 		Ti 		2.088900
Ti 1.0  		0.7569869129130455 		0.6202158979391561  0.5525400591542886 		Uiso   ? 		Ti 		2.088900
Ti 1.0  		0.2673858451011736 		0.39622178606476943  0.3900282770500861 		Uiso   ? 		Ti 		2.079345
Ti 1.0  		0.23786763144954715 		0.8964671246319922  0.3905158123963987 		Uiso   ? 		Ti 		2.079345
Ti 1.0  		0.7705732654156656 		0.39622178606476943  0.3900282770500861 		Uiso   ? 		Ti 		2.079345
Ti 1.0  		0.7358894873310206 		0.8954857703631012  0.39116585952481553 		Uiso   ? 		Ti 		2.079345
Ti 1.0  		0.27008459227920667 		0.4016192345436703  0.6095816946728637 		Uiso   ? 		Ti 		2.079353
Ti 1.0  		0.237394377211227 		0.8989205103042199  0.6090941593265512 		Uiso   ? 		Ti 		2.079353
Ti 1.0  		0.7698459569914087 		0.3964671246319922  0.6086066239802386 		Uiso   ? 		Ti 		2.079353
Ti 1.0  		0.7364458605659487 		0.8974484789008833  0.6084441121981343 		Uiso   ? 		Ti 		2.079353
Ti 1.0  		0.1047570543440044 		0.3285083415112856  0.3897032534858777 		Uiso   ? 		Ti 		2.079342
Ti 1.0  		0.07518186229593499 		0.8294896957801766  0.38954074170377345 		Uiso   ? 		Ti 		2.079342
Ti 1.0  		0.6075436177147582 		0.3272816486751718  0.38905320635746093 		Uiso   ? 		Ti 		2.079342
Ti 1.0  		0.5726473449424803 		0.8265456329735036  0.3913283713069197 		Uiso   ? 		Ti 		2.079342
Ti 1.0  		0.10734855009390212 		0.33071638861629055  0.6082816004160301 		Uiso   ? 		Ti 		2.079350
Ti 1.0  		0.07494523517677493 		0.8307163886162906  0.6099067182370722 		Uiso   ? 		Ti 		2.079350
Ti 1.0  		0.6072084527008511 		0.327036310107949  0.6094191828907596 		Uiso   ? 		Ti 		2.079350
Ti 1.0  		0.571797366191949 		0.8265456329735036  0.6094191828907596 		Uiso   ? 		Ti 		2.079350
Ti 1.0  		0.17328160509186477 		0.23478900883218842  0.3880781356648357 		Uiso   ? 		Ti 		2.079342
Ti 1.0  		0.1409922469676234 		0.7333169774288518  0.38905320635746093 		Uiso   ? 		Ti 		2.079342
Ti 1.0  		0.6750955193858131 		0.23331697742885182  0.38921571813956507 		Uiso   ? 		Ti 		2.079342
Ti 1.0  		0.6409265550377921 		0.7323356231599608  0.38872818279325244 		Uiso   ? 		Ti 		2.079342
Ti 1.0  		0.1750144085578429 		0.23527968596663396  0.6097442064549679 		Uiso   ? 		Ti 		2.079351
Ti 1.0  		0.14435261064008215 		0.7374877330716388  0.6100692300191763 		Uiso   ? 		Ti 		2.079351
Ti 1.0  		0.6768853012482341 		0.23307163886162907  0.6094191828907596 		Uiso   ? 		Ti 		2.079351
Ti 1.0  		0.6430360830159813 		0.735279685966634  0.6103942535833847 		Uiso   ? 		Ti 		2.079351
Ti 1.0  		0.42740111906917727 		0.23601570166830227  0.38954074170377345 		Uiso   ? 		Ti 		2.079342
Ti 1.0  		0.3930437924650508 		0.7338076545632974  0.3885656710111483 		Uiso   ? 		Ti 		2.079342
Ti 1.0  		0.9259049427223592 		0.2342983316977429  0.3898657652679819 		Uiso   ? 		Ti 		2.079342
Ti 1.0  		0.8928728572757219 		0.7360157016683023  0.3906783241785029 		Uiso   ? 		Ti 		2.079342
Ti 1.0  		0.4271403595184899 		0.23846908734052993  0.6094191828907596 		Uiso   ? 		Ti 		2.079349
Ti 1.0  		0.39141824042720796 		0.7365063788027478  0.6092566711086553 		Uiso   ? 		Ti 		2.079349
Ti 1.0  		0.9251360747997981 		0.23233562315996076  0.6107192771475931 		Uiso   ? 		Ti 		2.079349
Ti 1.0  		0.8947524634995015 		0.7355250245338568  0.6090941593265512 		Uiso   ? 		Ti 		2.079349
Ti 1.0  		0.3546603046160352 		0.07311089303238469  0.3914908830890239 		Uiso   ? 		Ti 		2.079343
Ti 1.0  		0.3236130686526751 		0.5711481844946026  0.3908408359606071 		Uiso   ? 		Ti 		2.079343
Ti 1.0  		0.8555257022647054 		0.07016683022571148  0.39100334774271134 		Uiso   ? 		Ti 		2.079343
Ti 1.0  		0.8262943887639314 		0.5731108930323847  0.3908408359606071 		Uiso   ? 		Ti 		2.079343
Ti 1.0  		0.35606665660149467 		0.07507360157016683  0.6077940650697176 		Uiso   ? 		Ti 		2.079351
Ti 1.0  		0.3232296387757134 		0.5733562315996076  0.6077940650697176 		Uiso   ? 		Ti 		2.079351
Ti 1.0  		0.8575038463832318 		0.07114818449460256  0.6084441121981343 		Uiso   ? 		Ti 		2.079351
Ti 1.0  		0.8257708614939188 		0.5716388616290482  0.6090941593265512 		Uiso   ? 		Ti 		2.079351
Ti 1.0  		0.2646020739815165 		0.14671246319921494  0.38905320635746093 		Uiso   ? 		Ti 		2.079342
Ti 1.0  		0.23084067194198432 		0.6422963689892052  0.3897032534858777 		Uiso   ? 		Ti 		2.079342
Ti 1.0  		0.7612484156738083 		0.13788027477919532  0.39100334774271134 		Uiso   ? 		Ti 		2.079342
Ti 1.0  		0.7298921552967061 		0.6408243375858685  0.38937822992166926 		Uiso   ? 		Ti 		2.079342
Ti 1.0  		0.2636535573362383 		0.1452404317958783  0.6095816946728637 		Uiso   ? 		Ti 		2.079351
Ti 1.0  		0.22953285785127192 		0.6418056918547597  0.6094191828907596 		Uiso   ? 		Ti 		2.079351
Ti 1.0  		0.7621640863541708 		0.13886162904808635  0.6087691357623427 		Uiso   ? 		Ti 		2.079351
Ti 1.0  		0.7311342774575873 		0.640333660451423  0.6095816946728637 		Uiso   ? 		Ti 		2.079351
Ti 1.0  		0.2872981269187603 		0.12070657507360158  0.22881658920271716 		Uiso   ? 		Ti 		2.087936
Ti 1.0  		0.2519835701359672 		0.6153091265947007  0.2283290538564046 		Uiso   ? 		Ti 		2.087936
Ti 1.0  		0.7850417961827695 		0.11874386653581943  0.22702895959957095 		Uiso   ? 		Ti 		2.087936
Ti 1.0  		0.753733800668722 		0.619234543670265  0.22751649494588355 		Uiso   ? 		Ti 		2.087936
Ti 1.0  		0.3807602200769317 		0.2154072620215898  0.11278317678031656 		Uiso   ? 		Ti 		2.066314
Ti 1.0  		0.3446131116103842 		0.7134445534838078  0.11375824747294178 		Uiso   ? 		Ti 		2.066314
Ti 1.0  		0.8815860663959356 		0.21663395485770365  0.11457080638346279 		Uiso   ? 		Ti 		2.066314
Ti 1.0  		0.8478575103213193 		0.7127085377821394  0.11213312965189974 		Uiso   ? 		Ti 		2.066314
Ti 1.0  		0.1451793442651666 		0.24828263002944065  0.11603341242240062 		Uiso   ? 		Ti 		2.066317
Ti 1.0  		0.12266674994067228 		0.753189401373896  0.11375824747294178 		Uiso   ? 		Ti 		2.066317
Ti 1.0  		0.6592562748492622 		0.2585868498527969  0.11294568856242077 		Uiso   ? 		Ti 		2.066317
Ti 1.0  		0.6141495353685831 		0.7497546614327774  0.11343322390873337 		Uiso   ? 		Ti 		2.066317
Ti 1.0  		0.1409991243717434 		0.3397939156035329  0.11375824747294178 		Uiso   ? 		Ti 		2.066242
Ti 1.0  		0.12021933351322717 		0.8451913640824338  0.11067052361296194 		Uiso   ? 		Ti 		2.066242
Ti 1.0  		0.6596698272557904 		0.3520608439646713  0.11148308252348295 		Uiso   ? 		Ti 		2.066242
Ti 1.0  		0.6173583646792538 		0.8437193326790973  0.11083303539506614 		Uiso   ? 		Ti 		2.066242
Ti 1.0  		0.23708828268007714 		0.3420019627085378  0.11148308252348295 		Uiso   ? 		Ti 		2.066229
Ti 1.0  		0.21536868870967113 		0.8476447497546615  0.11278317678031656 		Uiso   ? 		Ti 		2.066229
Ti 1.0  		0.7522846650987797 		0.35157016683022574  0.11213312965189974 		Uiso   ? 		Ti 		2.066229
Ti 1.0  		0.7096206104415592 		0.8395485770363103  0.11018298826664934 		Uiso   ? 		Ti 		2.066229
Ti 1.0  		0.1508134657403927 		0.2578508341511286  0.2299541716774466 		Uiso   ? 		Ti 		2.087937
Ti 1.0  		0.1199633055665264 		0.7588321884200196  0.22800403029219618 		Uiso   ? 		Ti 		2.087937
Ti 1.0  		0.6551618973877957 		0.25932286555446515  0.22751649494588355 		Uiso   ? 		Ti 		2.087937
Ti 1.0  		0.616375028308296 		0.7576054955839059  0.22897910098482138 		Uiso   ? 		Ti 		2.087937
Ti 1.0  		0.15161916155727106 		0.3508341511285574  0.22751649494588355 		Uiso   ? 		Ti 		2.087938
Ti 1.0  		0.12192129918292743 		0.8515701668302258  0.22637891247115416 		Uiso   ? 		Ti 		2.087938
Ti 1.0  		0.6566707691974039 		0.3532875368007851  0.22719147138167514 		Uiso   ? 		Ti 		2.087938
Ti 1.0  		0.6203111660432236 		0.851324828263003  0.22605388890694575 		Uiso   ? 		Ti 		2.087938
Ti 1.0  		0.24557465945588836 		0.351324828263003  0.22654142425325832 		Uiso   ? 		Ti 		2.087937
Ti 1.0  		0.21335099326147836 		0.8508341511285574  0.22816654207430034 		Uiso   ? 		Ti 		2.087937
Ti 1.0  		0.7493754314017516 		0.3525515210991168  0.22767900672798777 		Uiso   ? 		Ti 		2.087937
Ti 1.0  		0.7123696306512844 		0.8488714425907753  0.22637891247115416 		Uiso   ? 		Ti 		2.087937
Ti 1.0  		0.25987225503366335 		0.0760549558390579  0.17112490655572526 		Uiso   ? 		Ti 		2.071294
Ti 1.0  		0.22738582111992817 		0.5716388616290482  0.168524718042058 		Uiso   ? 		Ti 		2.071294
Ti 1.0  		0.7624463237167843 		0.07482826300294407  0.16949978873468324 		Uiso   ? 		Ti 		2.071294
Ti 1.0  		0.7290133813264088 		0.5753189401373897  0.16998732408099587 		Uiso   ? 		Ti 		2.071294
Ti 1.0  		0.3784167884149313 		0.11849852796859667  0.22719147138167514 		Uiso   ? 		Ti 		2.087937
Ti 1.0  		0.34384696712317203 		0.6162904808635918  0.22637891247115416 		Uiso   ? 		Ti 		2.087937
Ti 1.0  		0.8772229311171047 		0.11653581943081454  0.22751649494588355 		Uiso   ? 		Ti 		2.087937
Ti 1.0  		0.8446969458737033 		0.6162904808635918  0.22719147138167514 		Uiso   ? 		Ti 		2.087937
Ti 1.0  		0.42343213536933405 		0.14180569185475958  0.16884974160626642 		Uiso   ? 		Ti 		2.071296
Ti 1.0  		0.3909959744872912 		0.641315014720314  0.16803718269574544 		Uiso   ? 		Ti 		2.071296
Ti 1.0  		0.9258922472595691 		0.14205103042198233  0.16998732408099587 		Uiso   ? 		Ti 		2.071296
Ti 1.0  		0.8896707333298018 		0.6373895976447498  0.16949978873468324 		Uiso   ? 		Ti 		2.071296
Ti 1.0  		0.2834249576783151 		0.12315996074582926  0.11375824747294178 		Uiso   ? 		Ti 		2.066263
Ti 1.0  		0.2510457751927152 		0.6219332679097155  0.11262066499821236 		Uiso   ? 		Ti 		2.066263
Ti 1.0  		0.7888928411603252 		0.12389597644749756  0.11180810608769134 		Uiso   ? 		Ti 		2.066263
Ti 1.0  		0.752811424623609 		0.6229146221786066  0.11245815321610815 		Uiso   ? 		Ti 		2.066263
Ti 1.0  		0.3584147510517339 		0.23871442590775271  0.17177495368414208 		Uiso   ? 		Ti 		2.071295
Ti 1.0  		0.3218580721080597 		0.7338076545632974  0.1722624890304547 		Uiso   ? 		Ti 		2.071295
Ti 1.0  		0.8598452354687206 		0.23945044160942103  0.17323755972307991 		Uiso   ? 		Ti 		2.071295
Ti 1.0  		0.8258143603451128 		0.7357703631010796  0.17096239477362107 		Uiso   ? 		Ti 		2.071295
Ti 1.0  		0.10316506353778832 		0.23012757605495585  0.17470016576201772 		Uiso   ? 		Ti 		2.071300
Ti 1.0  		0.07392503650362597 		0.7313542688910697  0.17177495368414208 		Uiso   ? 		Ti 		2.071300
Ti 1.0  		0.61157703485038 		0.23675171736997058  0.17031234764520428 		Uiso   ? 		Ti 		2.071300
Ti 1.0  		0.569642296786054 		0.7308635917566242  0.17177495368414208 		Uiso   ? 		Ti 		2.071300
Ti 1.0  		0.16934267510584058 		0.3918056918547596  0.16917476517047483 		Uiso   ? 		Ti 		2.071292
Ti 1.0  		0.14487606909434697 		0.89450441609421  0.168524718042058 		Uiso   ? 		Ti 		2.071292
Ti 1.0  		0.6804272529963 		0.39867517173699707  0.16966230051678746 		Uiso   ? 		Ti 		2.071292
Ti 1.0  		0.6438618605192375 		0.8920510304219824  0.16771215913153703 		Uiso   ? 		Ti 		2.071292
Ti 1.0  		0.26431442415607903 		0.3233562315996075  0.16917476517047483 		Uiso   ? 		Ti 		2.071293
Ti 1.0  		0.23775571723317301 		0.8265456329735036  0.17112490655572526 		Uiso   ? 		Ti 		2.071293
Ti 1.0  		0.7745161773310917 		0.3297350343473995  0.17144993011993367 		Uiso   ? 		Ti 		2.071293
Ti 1.0  		0.732228847186082 		0.8201668302257116  0.17014983586310006 		Uiso   ? 		Ti 		2.071293
Ti 1.0  		0.26268482137308674 		0.39106967615309135  0.1672246237852244 		Uiso   ? 		Ti 		2.072880
Ti 1.0  		0.2381699504985386 		0.8962217860647694  0.17079988299151685 		Uiso   ? 		Ti 		2.072880
Ti 1.0  		0.7736795749021876 		0.39818449460255156  0.17031234764520428 		Uiso   ? 		Ti 		2.072880
Ti 1.0  		0.7349805220154085 		0.8898429833169774  0.166899600221016 		Uiso   ? 		Ti 		2.072880
Ti 1.0  		0.10101996615933462 		0.3218842001962709  0.17144993011993367 		Uiso   ? 		Ti 		2.072880
Ti 1.0  		0.07415894018743718 		0.8253189401373896  0.16868722982416223 		Uiso   ? 		Ti 		2.072880
Ti 1.0  		0.6121373900147097 		0.3292443572129539  0.16982481229889165 		Uiso   ? 		Ti 		2.072880
Ti 1.0  		0.5722136420338262 		0.8248282630029442  0.16949978873468324 		Uiso   ? 		Ti 		2.072880
Ti 1.0  		0.1717110232818271 		0.23037291462217863  0.17421263041570514 		Uiso   ? 		Ti 		2.072883
Ti 1.0  		0.14338666692802735 		0.7325809617271837  0.1729125361588715 		Uiso   ? 		Ti 		2.072883
Ti 1.0  		0.68026979735222 		0.23601570166830227  0.1716124419020379 		Uiso   ? 		Ti 		2.072883
Ti 1.0  		0.637206893919899 		0.7291462217860648  0.17177495368414208 		Uiso   ? 		Ti 		2.072883
Ti 1.0  		0.42658398628356164 		0.2365063788027478  0.17079988299151685 		Uiso   ? 		Ti 		2.072886
Ti 1.0  		0.3920798569216336 		0.735279685966634  0.1706373712094127 		Uiso   ? 		Ti 		2.072886
Ti 1.0  		0.9266979430764475 		0.2350343473994112  0.17275002437676729 		Uiso   ? 		Ti 		2.072886
Ti 1.0  		0.8938039468542234 		0.7340529931305202  0.17079988299151685 		Uiso   ? 		Ti 		2.072886
Ti 1.0  		0.3529362146834454 		0.07433758586849853  0.16933727695257905 		Uiso   ? 		Ti 		2.072877
Ti 1.0  		0.32036866994173996 		0.5718842001962708  0.16836220625995385 		Uiso   ? 		Ti 		2.072877
Ti 1.0  		0.8568837893871102 		0.0745829244357213  0.16787467091364122 		Uiso   ? 		Ti 		2.072877
Ti 1.0  		0.8186928448722047 		0.5706575073601571  0.16998732408099587 		Uiso   ? 		Ti 		2.072877
Ti 1.0  		0.3801053089472566 		0.21197252208047107  0.22865407742061297 		Uiso   ? 		Ti 		2.087938
Ti 1.0  		0.3444971466488605 		0.7085377821393524  0.22946663633113398 		Uiso   ? 		Ti 		2.087938
Ti 1.0  		0.8804317604277753 		0.21050049067713447  0.22946663633113398 		Uiso   ? 		Ti 		2.087938
Ti 1.0  		0.8474479398441925 		0.7097644749754661  0.22767900672798777 		Uiso   ? 		Ti 		2.087938
Ti 1.0  		0.3761537523141901 		0.12119725220804711  0.11180810608769134 		Uiso   ? 		Ti 		2.066269
Ti 1.0  		0.3449268676281128 		0.6197252208047105  0.11050801183085773 		Uiso   ? 		Ti 		2.066269
Ti 1.0  		0.8828811850238582 		0.12487733071638862  0.11180810608769134 		Uiso   ? 		Ti 		2.066269
Ti 1.0  		0.8432993074216322 		0.6160451422963691  0.11197061786979555 		Uiso   ? 		Ti 		2.066269
Ti 1.0  		0.26329425989080396 		0.14622178606476938  0.1722624890304547 		Uiso   ? 		Ti 		2.072880
Ti 1.0  		0.22780005438529374 		0.641315014720314  0.17177495368414208 		Uiso   ? 		Ti 		2.072880
Ti 1.0  		0.7638660520238711 		0.1452404317958783  0.17079988299151685 		Uiso   ? 		Ti 		2.072880
Ti 1.0  		0.7308580990087611 		0.6457311089303239  0.17128741833782948 		Uiso   ? 		Ti 		2.072880
